
##########                                Name:     oleObject79.pdb
##########                DOCK_Rotatable_Bonds:                  12
##########                         Heavy_Atoms:                  53
##########                    Molecular_Weight:             725.376
##########                DOCK_Rotatable_Bonds:                  12
##########                       Formal_Charge:          0.00050066
##########                     HBond_Acceptors:                   8
##########                        HBond_Donors:                   4
##########                         Heavy_Atoms:                  53
##########                          Grid_Score:          -39.933765
##########                     Grid_vdw_energy:          -39.722229
##########                      Grid_es_energy:           -0.211538
##########           Internal_energy_repulsive:           37.520142

@<TRIPOS>MOLECULE
oleObject79.pdb
 102 108 1 0 0
SMALL
NO_CHARGES


@<TRIPOS>ATOM
      1 C         -12.6878   -3.6186   56.4771 C.ar    1  UNL        -0.0620
      2 C         -13.5758   -3.8461   57.5376 C.ar    1  UNL        -0.0590
      3 C         -13.5361   -3.0459   58.6963 C.ar    1  UNL        -0.0456
      4 C         -12.5875   -1.9934   58.7928 C.ar    1  UNL        -0.0185
      5 C         -11.7022   -1.7803   57.7138 C.ar    1  UNL        -0.0565
      6 C         -11.7493   -2.5841   56.5660 C.ar    1  UNL        -0.0619
      7 C         -12.5320   -1.0503   60.0117 C.3     1  UNL         0.0931
      8 C         -11.1747   -1.0017   60.7381 C.ar    1  UNL         0.0683
      9 C         -11.0571   -0.4685   62.0473 C.ar    1  UNL        -0.0272
     10 C          -9.7871   -0.4539   62.6543 C.ar    1  UNL        -0.0559
     11 C          -8.6869   -0.9653   61.9514 C.ar    1  UNL        -0.0435
     12 C          -8.8930   -1.4758   60.6616 C.ar    1  UNL         0.0272
     13 N         -10.1032   -1.4927   60.0726 N.ar    1  UNL        -0.2587
     14 C         -12.2543    0.0866   62.8121 C.3     1  UNL        -0.0379
     15 N         -13.1117    0.2840   59.6908 N.am    1  UNL        -0.2918
     16 C         -12.3486    1.2442   59.0228 C.2     1  UNL         0.2179
     17 O         -11.1343    1.1375   58.9773 O.2     1  UNL        -0.2772
     18 C         -13.0408    2.6034   58.7335 C.3     1  UNL         0.0361
     19 C         -13.9262    2.5800   57.4546 C.3     1  UNL        -0.0412
     20 C         -13.1144    2.5722   56.1298 C.3     1  UNL        -0.0453
     21 C         -12.0263    3.6832   56.0351 C.3     1  UNL        -0.0139
     22 C         -11.0875    3.3519   54.8420 C.3     1  UNL         0.0171
     23 N         -10.0939    4.4249   54.6343 N.pl3   1  UNL        -0.3290
     24 C         -10.6861    5.7373   54.3098 C.3     1  UNL         0.0115
     25 C         -11.6710    6.1791   55.4179 C.3     1  UNL        -0.0368
     26 C         -12.6956    5.0674   55.7569 C.3     1  UNL        -0.0446
     27 C          -8.7265    4.1503   54.5267 C.ar    1  UNL         0.0476
     28 C          -7.8294    4.7993   55.3975 C.ar    1  UNL        -0.0375
     29 C          -6.4467    4.5776   55.3066 C.ar    1  UNL        -0.0388
     30 C          -5.9250    3.7182   54.3275 C.ar    1  UNL         0.0318
     31 C          -6.8152    3.0524   53.4652 C.ar    1  UNL        -0.0202
     32 C          -8.2012    3.2664   53.5545 C.ar    1  UNL         0.0636
     33 CL         -9.2120    2.4487   52.3751 Cl      1  UNL        -0.0822
     34 N          -4.5467    3.5227   54.2671 N.pl3   1  UNL        -0.3149
     35 C          -3.6225    3.1492   55.2414 C.ar    1  UNL         0.0302
     36 C          -3.8709    2.1036   56.1497 C.ar    1  UNL        -0.0402
     37 C          -2.9045    1.7383   57.1004 C.ar    1  UNL        -0.0525
     38 C          -1.6535    2.4001   57.1711 C.ar    1  UNL        -0.0182
     39 C          -1.4131    3.4380   56.2367 C.ar    1  UNL        -0.0525
     40 C          -2.3786    3.7992   55.2830 C.ar    1  UNL        -0.0402
     41 C          -0.6193    2.0110   58.1874 C.ar    1  UNL        -0.0177
     42 C          -0.6400    0.7355   58.8073 C.ar    1  UNL        -0.0439
     43 C           0.3231    0.3548   59.7671 C.ar    1  UNL         0.0111
     44 C           1.3316    1.2773   60.1146 C.ar    1  UNL        -0.0518
     45 C           1.3746    2.5440   59.5149 C.ar    1  UNL        -0.0609
     46 C           0.4117    2.9066   58.5621 C.ar    1  UNL        -0.0543
     47 C           0.2806   -0.9119   60.3587 C.2     1  UNL         0.1014
     48 N           1.0830   -1.2570   61.2973 N.3     1  UNL        -0.2892
     49 N          -0.6101   -1.8288   59.9567 N.3     1  UNL        -0.2870
     50 C         -11.1810    3.6932   57.3469 C.3     1  UNL        -0.0453
     51 C         -12.0317    3.7768   58.6322 C.3     1  UNL        -0.0412
     52 C         -14.5179    0.5406   60.0721 C.3     1  UNL         0.0037
     53 C         -14.5464   -3.3363   59.8011 C.3     1  UNL        -0.0394
     54 H         -12.7289   -4.2390   55.5871 H       1  UNL         0.0623
     55 H         -14.3046   -4.6471   57.4546 H       1  UNL         0.0626
     56 H         -10.9688   -0.9824   57.7616 H       1  UNL         0.0627
     57 H         -11.0608   -2.4022   55.7460 H       1  UNL         0.0623
     58 H         -13.1970   -1.4831   60.7608 H       1  UNL         0.0626
     59 H          -9.6538   -0.0538   63.6554 H       1  UNL         0.0627
     60 H          -7.6962   -0.9677   62.3962 H       1  UNL         0.0639
     61 H          -8.0661   -1.8841   60.0819 H       1  UNL         0.0840
     62 H         -12.7039    0.9359   62.2836 H       1  UNL         0.0280
     63 H         -11.9675    0.4400   63.8103 H       1  UNL         0.0280
     64 H         -13.0289   -0.6781   62.9483 H       1  UNL         0.0280
     65 H         -13.7083    2.7999   59.5813 H       1  UNL         0.0401
     66 H         -14.5762    3.4641   57.4622 H       1  UNL         0.0275
     67 H         -14.5958    1.7107   57.4814 H       1  UNL         0.0275
     68 H         -13.8081    2.6548   55.2831 H       1  UNL         0.0273
     69 H         -12.6328    1.5942   56.0138 H       1  UNL         0.0273
     70 H         -11.6843    3.2281   53.9290 H       1  UNL         0.0474
     71 H         -10.5813    2.3975   55.0383 H       1  UNL         0.0474
     72 H         -11.2305    5.6593   53.3599 H       1  UNL         0.0468
     73 H          -9.9079    6.4993   54.1795 H       1  UNL         0.0468
     74 H         -12.2016    7.0841   55.0966 H       1  UNL         0.0283
     75 H         -11.1113    6.4530   56.3200 H       1  UNL         0.0283
     76 H         -13.3770    4.9673   54.9019 H       1  UNL         0.0273
     77 H         -13.3156    5.3867   56.6026 H       1  UNL         0.0273
     78 H          -8.2054    5.4769   56.1585 H       1  UNL         0.0644
     79 H          -5.7767    5.0898   55.9915 H       1  UNL         0.0643
     80 H          -6.4365    2.3596   52.7202 H       1  UNL         0.0659
     81 H          -4.1474    3.6571   53.3471 H       1  UNL         0.1528
     82 H          -4.8055    1.5546   56.1137 H       1  UNL         0.0643
     83 H          -3.1400    0.9387   57.7957 H       1  UNL         0.0630
     84 H          -0.4605    3.9583   56.2329 H       1  UNL         0.0630
     85 H          -2.1596    4.5942   54.5756 H       1  UNL         0.0643
     86 H          -1.4149    0.0276   58.5300 H       1  UNL         0.0637
     87 H           2.0949    1.0136   60.8415 H       1  UNL         0.0630
     88 H           2.1557    3.2472   59.7900 H       1  UNL         0.0623
     89 H           0.4586    3.8999   58.1266 H       1  UNL         0.0629
     90 H           1.2912   -2.2564   61.2453 H       1  UNL         0.1889
     91 H          -0.9692   -1.8042   59.0040 H       1  UNL         0.1258
     92 H          -0.4685   -2.8067   60.2033 H       1  UNL         0.1258
     93 H         -10.4564    4.5150   57.3460 H       1  UNL         0.0273
     94 H         -10.5854    2.7741   57.3868 H       1  UNL         0.0273
     95 H         -12.5778    4.7275   58.6511 H       1  UNL         0.0275
     96 H         -11.3698    3.8024   59.5040 H       1  UNL         0.0275
     97 H         -14.6023    1.4713   60.6441 H       1  UNL         0.0433
     98 H         -14.9208   -0.2691   60.6910 H       1  UNL         0.0433
     99 H         -15.1290    0.6250   59.1649 H       1  UNL         0.0433
    100 H         -15.1484   -4.2263   59.5793 H       1  UNL         0.0280
    101 H         -15.2413   -2.4966   59.9280 H       1  UNL         0.0280
    102 H         -14.0439   -3.5147   60.7600 H       1  UNL         0.0280
@<TRIPOS>BOND
     1     1     2   ar
     2     1     6   ar
     3     1    54    1
     4     2     3   ar
     5     2    55    1
     6     3     4   ar
     7     3    53    1
     8     4     5   ar
     9     4     7    1
    10     5     6   ar
    11     5    56    1
    12     6    57    1
    13     7     8    1
    14     7    15    1
    15     7    58    1
    16     8     9   ar
    17     8    13   ar
    18     9    10   ar
    19     9    14    1
    20    10    11   ar
    21    10    59    1
    22    11    12   ar
    23    11    60    1
    24    12    13   ar
    25    12    61    1
    26    14    62    1
    27    14    63    1
    28    14    64    1
    29    15    16   am
    30    15    52    1
    31    16    17    2
    32    16    18    1
    33    18    19    1
    34    18    51    1
    35    18    65    1
    36    19    20    1
    37    19    66    1
    38    19    67    1
    39    20    21    1
    40    20    68    1
    41    20    69    1
    42    21    22    1
    43    21    26    1
    44    21    50    1
    45    22    23    1
    46    22    70    1
    47    22    71    1
    48    23    24    1
    49    23    27    1
    50    24    25    1
    51    24    72    1
    52    24    73    1
    53    25    26    1
    54    25    74    1
    55    25    75    1
    56    26    76    1
    57    26    77    1
    58    27    28   ar
    59    27    32   ar
    60    28    29   ar
    61    28    78    1
    62    29    30   ar
    63    29    79    1
    64    30    31   ar
    65    30    34    1
    66    31    32   ar
    67    31    80    1
    68    32    33    1
    69    34    35    1
    70    34    81    1
    71    35    36   ar
    72    35    40   ar
    73    36    37   ar
    74    36    82    1
    75    37    38   ar
    76    37    83    1
    77    38    39   ar
    78    38    41    1
    79    39    40   ar
    80    39    84    1
    81    40    85    1
    82    41    42   ar
    83    41    46   ar
    84    42    43   ar
    85    42    86    1
    86    43    44   ar
    87    43    47    1
    88    44    45   ar
    89    44    87    1
    90    45    46   ar
    91    45    88    1
    92    46    89    1
    93    47    48    1
    94    47    49    1
    95    48    90    1
    96    49    91    1
    97    49    92    1
    98    50    51    1
    99    50    93    1
   100    50    94    1
   101    51    95    1
   102    51    96    1
   103    52    97    1
   104    52    98    1
   105    52    99    1
   106    53   100    1
   107    53   101    1
   108    53   102    1
@<TRIPOS>SUBSTRUCTURE
     1 UNL         1 TEMP              0 ****  ****    0 ROOT


##########                                Name:    ZINC001591898574
##########                DOCK_Rotatable_Bonds:                  10
##########                         Heavy_Atoms:                  26
##########                    Molecular_Weight:             383.434
##########                DOCK_Rotatable_Bonds:                  10
##########                       Formal_Charge:         5.96046e-08
##########                     HBond_Acceptors:                  13
##########                        HBond_Donors:                   3
##########                         Heavy_Atoms:                  26
##########                          Grid_Score:          -39.262829
##########                     Grid_vdw_energy:          -35.702732
##########                      Grid_es_energy:           -3.560097
##########           Internal_energy_repulsive:            7.771216

@<TRIPOS>MOLECULE
ZINC001591898574
 47 48 1 0 0
SMALL
USER_CHARGES


@<TRIPOS>ATOM
      1 C1          2.3117    3.3035   48.6479 C.3     1  ZINC001591898574   -0.1100
      2 C2          0.9519    2.6950   48.8753 C.ar    1  ZINC001591898574    0.2300
      3 C3          0.7164    1.3697   48.5551 C.ar    1  ZINC001591898574   -0.2400
      4 C4         -0.5588    0.8465   48.7828 C.ar    1  ZINC001591898574    0.3000
      5 C5         -0.8614   -0.5692   48.4565 C.2     1  ZINC001591898574    0.2100
      6 N6         -0.0087   -1.5747   48.4471 N.2     1  ZINC001591898574   -0.2500
      7 N7         -0.6568   -2.6380   48.1152 N.pl3   1  ZINC001591898574   -0.2200
      8 N8         -1.8925   -2.3385   47.9140 N.2     1  ZINC001591898574   -0.0400
      9 N9         -2.0561   -1.0756   48.1195 N.2     1  ZINC001591898574   -0.2500
     10 N10        -1.4978    1.6367   49.2970 N.ar    1  ZINC001591898574   -0.5500
     11 C11        -1.2301    2.8998   49.5893 C.ar    1  ZINC001591898574    0.5800
     12 N12        -2.2297    3.6948   50.1230 N.pl3   1  ZINC001591898574   -0.7000
     13 C13        -3.2095    3.1180   51.0468 C.3     1  ZINC001591898574    0.1400
     14 C14        -4.2612    4.1723   51.3982 C.3     1  ZINC001591898574   -0.1500
     15 C15        -5.4162    3.5092   52.1515 C.3     1  ZINC001591898574    0.1200
     16 N16        -5.2740    3.7652   53.5868 N.am    1  ZINC001591898574   -0.7300
     17 C17        -6.3469    3.6734   54.3973 C.2     1  ZINC001591898574    0.4900
     18 O18        -7.4299    3.3773   53.9385 O.2     1  ZINC001591898574   -0.5300
     19 C19        -6.2009    3.9385   55.8736 C.3     1  ZINC001591898574    0.1000
     20 N20        -6.0761    2.6658   56.5883 N.am    1  ZINC001591898574   -0.9800
     21 C21        -4.8645    1.8563   56.4369 C.3     1  ZINC001591898574    0.1000
     22 S22        -7.3048    2.1420   57.5674 S.o2    1  ZINC001591898574    2.6100
     23 C23        -8.7344    1.9953   56.4605 C.3     1  ZINC001591898574   -0.6600
     24 O24        -6.8803    0.8590   58.0065 O.2     1  ZINC001591898574   -0.9500
     25 O25        -7.4954    3.2060   58.4899 O.2     1  ZINC001591898574   -0.9600
     26 N26        -0.0286    3.4212   49.3886 N.ar    1  ZINC001591898574   -0.5600
     27 H27         2.9246    3.1666   49.5389 H       1  ZINC001591898574    0.0900
     28 H28         2.7907    2.8157   47.7990 H       1  ZINC001591898574    0.0900
     29 H29         2.2034    4.3683   48.4416 H       1  ZINC001591898574    0.0900
     30 H30         1.5000    0.7543   48.1385 H       1  ZINC001591898574    0.1600
     31 H31        -0.2735   -3.5251   48.0302 H       1  ZINC001591898574    0.4800
     32 H32        -2.2813    4.6338   49.8854 H       1  ZINC001591898574    0.4200
     33 H33        -3.6950    2.2639   50.5747 H       1  ZINC001591898574    0.0700
     34 H34        -2.7039    2.7921   51.9557 H       1  ZINC001591898574    0.0700
     35 H35        -3.8103    4.9398   52.0273 H       1  ZINC001591898574    0.0800
     36 H36        -4.6386    4.6281   50.4829 H       1  ZINC001591898574    0.0800
     37 H37        -6.3626    3.9210   51.8010 H       1  ZINC001591898574    0.0700
     38 H38        -5.3984    2.4344   51.9706 H       1  ZINC001591898574    0.0700
     39 H39        -4.4076    4.0009   53.9540 H       1  ZINC001591898574    0.4000
     40 H40        -5.3102    4.5420   56.0481 H       1  ZINC001591898574    0.1200
     41 H41        -7.0789    4.4737   56.2352 H       1  ZINC001591898574    0.1300
     42 H42        -4.1375    2.1448   57.1960 H       1  ZINC001591898574    0.0600
     43 H43        -5.1146    0.8021   56.5554 H       1  ZINC001591898574    0.0700
     44 H44        -4.4398    2.0198   55.4464 H       1  ZINC001591898574    0.0700
     45 H45        -8.5101    1.2787   55.6704 H       1  ZINC001591898574    0.1300
     46 H46        -9.5994    1.6517   57.0279 H       1  ZINC001591898574    0.1200
     47 H47        -8.9528    2.9673   56.0182 H       1  ZINC001591898574    0.1300
@<TRIPOS>BOND
     1     1     2    1
     2     1    27    1
     3     1    28    1
     4     1    29    1
     5     2    26   ar
     6     2     3   ar
     7     3     4   ar
     8     3    30    1
     9     4     5    1
    10     4    10   ar
    11     5     9    1
    12     5     6    2
    13     6     7    1
    14     7     8    1
    15     7    31    1
    16     8     9    2
    17    10    11   ar
    18    11    12    1
    19    11    26   ar
    20    12    13    1
    21    12    32    1
    22    13    14    1
    23    13    33    1
    24    13    34    1
    25    14    15    1
    26    14    35    1
    27    14    36    1
    28    15    16    1
    29    15    37    1
    30    15    38    1
    31    16    17   am
    32    16    39    1
    33    17    18    2
    34    17    19    1
    35    19    20    1
    36    19    40    1
    37    19    41    1
    38    20    21    1
    39    20    22   am
    40    21    42    1
    41    21    43    1
    42    21    44    1
    43    22    23    1
    44    22    24    2
    45    22    25    2
    46    23    45    1
    47    23    46    1
    48    23    47    1
@<TRIPOS>SUBSTRUCTURE
     1 ZINC001591898574        1 TEMP              0 ****  ****    0 ROOT


##########                                Name:     oleObject80.pdb
##########                DOCK_Rotatable_Bonds:                  14
##########                         Heavy_Atoms:                  51
##########                    Molecular_Weight:             703.283
##########                DOCK_Rotatable_Bonds:                  14
##########                       Formal_Charge:         0.000299793
##########                     HBond_Acceptors:                  10
##########                        HBond_Donors:                   3
##########                         Heavy_Atoms:                  51
##########                          Grid_Score:          -39.225594
##########                     Grid_vdw_energy:          -38.834141
##########                      Grid_es_energy:           -0.391451
##########           Internal_energy_repulsive:           38.057217

@<TRIPOS>MOLECULE
oleObject80.pdb
 94 99 1 0 0
SMALL
NO_CHARGES


@<TRIPOS>ATOM
      1 C         -12.1388    0.4130   53.2897 C.ar    1  UNL        -0.0620
      2 C         -13.4104    0.8006   53.7350 C.ar    1  UNL        -0.0590
      3 C         -13.7519    0.7182   55.0990 C.ar    1  UNL        -0.0456
      4 C         -12.8006    0.2369   56.0342 C.ar    1  UNL        -0.0185
      5 C         -11.5230   -0.1477   55.5695 C.ar    1  UNL        -0.0565
      6 C         -11.1940   -0.0604   54.2088 C.ar    1  UNL        -0.0619
      7 C         -13.1484    0.1278   57.5296 C.3     1  UNL         0.0931
      8 C         -14.3790   -0.7501   57.8190 C.ar    1  UNL         0.0683
      9 C         -14.5953   -1.9735   57.1356 C.ar    1  UNL        -0.0272
     10 C         -15.7462   -2.7217   57.4473 C.ar    1  UNL        -0.0559
     11 C         -16.6329   -2.2391   58.4204 C.ar    1  UNL        -0.0435
     12 C         -16.3376   -1.0236   59.0543 C.ar    1  UNL         0.0272
     13 N         -15.2399   -0.3010   58.7632 N.ar    1  UNL        -0.2587
     14 C         -13.6264   -2.5008   56.0829 C.3     1  UNL        -0.0379
     15 N         -11.9804   -0.1803   58.4045 N.am    1  UNL        -0.2918
     16 C         -11.0894    0.8307   58.7820 C.2     1  UNL         0.2180
     17 O         -11.3824    2.0060   58.6336 O.2     1  UNL        -0.2772
     18 C          -9.9035    0.4238   59.6922 C.3     1  UNL         0.0385
     19 C          -9.5047    1.5587   60.6675 C.3     1  UNL        -0.0289
     20 C          -8.7771    2.7099   59.9435 C.3     1  UNL        -0.0010
     21 N          -7.5732    2.2309   59.2311 N.4     1  UNL        -0.3010
     22 C          -7.8643    1.1485   58.2605 C.3     1  UNL        -0.0010
     23 C          -8.6515   -0.0269   58.8936 C.3     1  UNL        -0.0289
     24 C          -6.7943    3.3561   58.6682 C.3     1  UNL         0.0222
     25 C          -6.4622    3.1864   57.1713 C.3     1  UNL         0.0661
     26 O          -6.2604    4.4979   56.6153 O.3     1  UNL        -0.3432
     27 C          -5.7027    4.7224   55.3713 C.ar    1  UNL         0.0937
     28 C          -4.3121    4.6554   55.1505 C.ar    1  UNL        -0.0284
     29 C          -3.7873    4.8925   53.8693 C.ar    1  UNL        -0.0381
     30 C          -4.6364    5.1849   52.7881 C.ar    1  UNL         0.0319
     31 C          -6.0235    5.2731   53.0152 C.ar    1  UNL        -0.0194
     32 C          -6.5536    5.0385   54.2946 C.ar    1  UNL         0.0727
     33 CL         -8.2882    5.1564   54.5249 Cl      1  UNL        -0.0814
     34 N          -4.0710    5.4303   51.5381 N.pl3   1  UNL        -0.3136
     35 C          -3.2662    4.6440   50.7144 C.ar    1  UNL         0.0489
     36 C          -2.1449    5.2168   50.0885 C.ar    1  UNL         0.0488
     37 N          -1.3067    4.5220   49.2937 N.ar    1  UNL        -0.2543
     38 C          -1.5160    3.2046   49.0781 C.ar    1  UNL         0.0703
     39 C          -2.6159    2.5475   49.6884 C.ar    1  UNL        -0.0339
     40 C          -3.4919    3.2698   50.5146 C.ar    1  UNL        -0.0371
     41 C          -0.5343    2.4953   48.1837 C.ar    1  UNL         0.0009
     42 C          -0.9230    1.9627   46.9268 C.ar    1  UNL        -0.0402
     43 C          -0.0131    1.2956   46.0801 C.ar    1  UNL         0.0375
     44 C           1.3259    1.1544   46.5002 C.ar    1  UNL        -0.0496
     45 C           1.7365    1.6660   47.7390 C.ar    1  UNL        -0.0608
     46 C           0.8198    2.3253   48.5702 C.ar    1  UNL        -0.0528
     47 C          -0.4943    0.7518   44.7565 C.2     1  UNL         0.2403
     48 O           0.1953    0.7707   43.7528 O.2     1  UNL        -0.2722
     49 N          -1.7653    0.2190   44.7117 N.am    1  UNL        -0.3251
     50 C         -11.8618   -1.5657   58.9124 C.3     1  UNL         0.0037
     51 C         -15.1494    1.1580   55.5258 C.3     1  UNL        -0.0394
     52 H         -11.8863    0.4816   52.2354 H       1  UNL         0.0623
     53 H         -14.1344    1.1680   53.0131 H       1  UNL         0.0626
     54 H         -10.7693   -0.5105   56.2610 H       1  UNL         0.0627
     55 H         -10.2065   -0.3587   53.8686 H       1  UNL         0.0623
     56 H         -13.4657    1.1359   57.8078 H       1  UNL         0.0626
     57 H         -15.9509   -3.6624   56.9441 H       1  UNL         0.0627
     58 H         -17.5284   -2.7960   58.6800 H       1  UNL         0.0639
     59 H         -16.9988   -0.6152   59.8175 H       1  UNL         0.0840
     60 H         -13.6278   -1.8606   55.1919 H       1  UNL         0.0280
     61 H         -13.8932   -3.5146   55.7594 H       1  UNL         0.0280
     62 H         -12.6012   -2.5424   56.4712 H       1  UNL         0.0280
     63 H         -10.2222   -0.4429   60.2828 H       1  UNL         0.0402
     64 H          -8.8386    1.1513   61.4390 H       1  UNL         0.0288
     65 H         -10.3829    1.9504   61.1919 H       1  UNL         0.0288
     66 H          -8.4946    3.4656   60.6878 H       1  UNL         0.0431
     67 H          -9.4684    3.1845   59.2337 H       1  UNL         0.0431
     68 H          -6.9321    0.7427   57.8505 H       1  UNL         0.0431
     69 H          -8.4365    1.5591   57.4193 H       1  UNL         0.0431
     70 H          -7.9774   -0.5609   59.5758 H       1  UNL         0.0288
     71 H          -8.9387   -0.7455   58.1155 H       1  UNL         0.0288
     72 H          -5.8447    3.4445   59.2121 H       1  UNL         0.0455
     73 H          -7.3429    4.2968   58.8082 H       1  UNL         0.0455
     74 H          -7.2889    2.6836   56.6550 H       1  UNL         0.0586
     75 H          -5.5507    2.5844   57.0657 H       1  UNL         0.0586
     76 H          -3.6287    4.4233   55.9607 H       1  UNL         0.0652
     77 H          -2.7133    4.8385   53.7144 H       1  UNL         0.0644
     78 H          -6.6964    5.5443   52.2078 H       1  UNL         0.0659
     79 H          -4.2749    6.3482   51.1636 H       1  UNL         0.1528
     80 H          -1.9136    6.2729   50.2204 H       1  UNL         0.0861
     81 H          -2.8023    1.4921   49.5226 H       1  UNL         0.0646
     82 H          -4.3170    2.7592   51.0011 H       1  UNL         0.0644
     83 H          -1.9551    2.0512   46.6059 H       1  UNL         0.0638
     84 H           2.0577    0.6485   45.8783 H       1  UNL         0.0631
     85 H           2.7694    1.5526   48.0564 H       1  UNL         0.0623
     86 H           1.1714    2.7160   49.5209 H       1  UNL         0.0630
     87 H          -2.1269   -0.1562   43.8452 H       1  UNL         0.1458
     88 H          -2.3235    0.2094   45.5558 H       1  UNL         0.1458
     89 H         -12.5938   -2.2344   58.4478 H       1  UNL         0.0433
     90 H         -12.0314   -1.5869   59.9952 H       1  UNL         0.0433
     91 H         -10.8564   -1.9492   58.6983 H       1  UNL         0.0433
     92 H         -15.7321    1.5387   54.6779 H       1  UNL         0.0280
     93 H         -15.1030    1.9608   56.2716 H       1  UNL         0.0280
     94 H         -15.7140    0.3228   55.9583 H       1  UNL         0.0280
@<TRIPOS>BOND
     1     1     2   ar
     2     1     6   ar
     3     1    52    1
     4     2     3   ar
     5     2    53    1
     6     3     4   ar
     7     3    51    1
     8     4     5   ar
     9     4     7    1
    10     5     6   ar
    11     5    54    1
    12     6    55    1
    13     7     8    1
    14     7    15    1
    15     7    56    1
    16     8     9   ar
    17     8    13   ar
    18     9    10   ar
    19     9    14    1
    20    10    11   ar
    21    10    57    1
    22    11    12   ar
    23    11    58    1
    24    12    13   ar
    25    12    59    1
    26    14    60    1
    27    14    61    1
    28    14    62    1
    29    15    16   am
    30    15    50    1
    31    16    17    2
    32    16    18    1
    33    18    19    1
    34    18    23    1
    35    18    63    1
    36    19    20    1
    37    19    64    1
    38    19    65    1
    39    20    21    1
    40    20    66    1
    41    20    67    1
    42    21    22    1
    43    21    24    1
    44    22    23    1
    45    22    68    1
    46    22    69    1
    47    23    70    1
    48    23    71    1
    49    24    25    1
    50    24    72    1
    51    24    73    1
    52    25    26    1
    53    25    74    1
    54    25    75    1
    55    26    27    1
    56    27    28   ar
    57    27    32   ar
    58    28    29   ar
    59    28    76    1
    60    29    30   ar
    61    29    77    1
    62    30    31   ar
    63    30    34    1
    64    31    32   ar
    65    31    78    1
    66    32    33    1
    67    34    35    1
    68    34    79    1
    69    35    36   ar
    70    35    40   ar
    71    36    37   ar
    72    36    80    1
    73    37    38   ar
    74    38    39   ar
    75    38    41    1
    76    39    40   ar
    77    39    81    1
    78    40    82    1
    79    41    42   ar
    80    41    46   ar
    81    42    43   ar
    82    42    83    1
    83    43    44   ar
    84    43    47    1
    85    44    45   ar
    86    44    84    1
    87    45    46   ar
    88    45    85    1
    89    46    86    1
    90    47    48    2
    91    47    49   am
    92    49    87    1
    93    49    88    1
    94    50    89    1
    95    50    90    1
    96    50    91    1
    97    51    92    1
    98    51    93    1
    99    51    94    1
@<TRIPOS>SUBSTRUCTURE
     1 UNL         1 TEMP              0 ****  ****    0 ROOT


##########                                Name:    ZINC000487792031
##########                DOCK_Rotatable_Bonds:                  12
##########                         Heavy_Atoms:                  29
##########                    Molecular_Weight:             414.569
##########                DOCK_Rotatable_Bonds:                  12
##########                       Formal_Charge:          -0.0100001
##########                     HBond_Acceptors:                   6
##########                        HBond_Donors:                   1
##########                         Heavy_Atoms:                  29
##########                          Grid_Score:          -39.165176
##########                     Grid_vdw_energy:          -37.422901
##########                      Grid_es_energy:           -1.742276
##########           Internal_energy_repulsive:           20.884632

@<TRIPOS>MOLECULE
ZINC000487792031
 59 60 1 0 0
SMALL
USER_CHARGES


@<TRIPOS>ATOM
      1 C1          0.1689    1.6783   58.0473 C.2     1  ZINC000487792031   -0.1900
      2 C2         -0.2088    2.0312   56.8436 C.2     1  ZINC000487792031   -0.1500
      3 C3         -1.3014    3.0538   56.6661 C.3     1  ZINC000487792031   -0.0900
      4 C4         -2.0289    2.7988   55.3446 C.3     1  ZINC000487792031   -0.0900
      5 C5         -3.1750    3.8009   55.1918 C.3     1  ZINC000487792031   -0.0700
      6 H6         -3.0371    4.6209   55.8966 H       1  ZINC000487792031    0.1100
      7 C7         -3.1838    4.3433   53.7857 C.2     1  ZINC000487792031    0.5200
      8 O8         -3.1455    5.5408   53.5975 O.2     1  ZINC000487792031   -0.5300
      9 N9         -3.2344    3.4976   52.7375 N.am    1  ZINC000487792031   -0.7200
     10 C10        -3.2447    4.0248   51.3708 C.3     1  ZINC000487792031    0.1500
     11 C11        -2.5504    3.0527   50.4521 C.ar    1  ZINC000487792031   -0.0500
     12 C12        -1.2423    3.2794   50.0671 C.ar    1  ZINC000487792031   -0.1200
     13 C13        -0.6055    2.3878   49.2243 C.ar    1  ZINC000487792031   -0.0200
     14 C14        -1.2766    1.2690   48.7670 C.ar    1  ZINC000487792031   -0.6700
     15 S15        -0.4650    0.1328   47.6924 S.o2    1  ZINC000487792031    2.6900
     16 O16         0.8931    0.0874   48.1081 O.2     1  ZINC000487792031   -0.9500
     17 O17        -1.2957   -1.0181   47.6241 O.2     1  ZINC000487792031   -0.9500
     18 N18        -0.4683    0.8025   46.1780 N.am    1  ZINC000487792031   -1.0000
     19 C19        -1.7383    1.1207   45.5205 C.3     1  ZINC000487792031    0.1200
     20 C20        -2.1388   -0.0335   44.5994 C.3     1  ZINC000487792031   -0.1800
     21 C21         0.7988    1.0769   45.4957 C.3     1  ZINC000487792031    0.1100
     22 C22         1.2867    2.4779   45.8701 C.3     1  ZINC000487792031   -0.1800
     23 C23        -2.5844    1.0417   49.1531 C.ar    1  ZINC000487792031   -0.0200
     24 C24        -3.2199    1.9314   49.9990 C.ar    1  ZINC000487792031   -0.1200
     25 C25        -4.4855    3.1120   55.4726 C.ar    1  ZINC000487792031   -0.0800
     26 C26        -4.5508    2.1130   56.4258 C.ar    1  ZINC000487792031   -0.1100
     27 C27        -5.7531    1.4811   56.6835 C.ar    1  ZINC000487792031   -0.1100
     28 C28        -6.8899    1.8486   55.9882 C.ar    1  ZINC000487792031   -0.1200
     29 C29        -6.8247    2.8482   55.0357 C.ar    1  ZINC000487792031   -0.1200
     30 C30        -5.6234    3.4831   54.7811 C.ar    1  ZINC000487792031   -0.1100
     31 H31         0.9520    0.9455   58.1745 H       1  ZINC000487792031    0.1000
     32 H32        -0.2996    2.1236   58.9125 H       1  ZINC000487792031    0.1000
     33 H33         0.2628    1.5891   55.9784 H       1  ZINC000487792031    0.1100
     34 H34        -2.0091    2.9763   57.4915 H       1  ZINC000487792031    0.0700
     35 H35        -0.8655    4.0529   56.6541 H       1  ZINC000487792031    0.0700
     36 H36        -1.3302    2.9169   54.5165 H       1  ZINC000487792031    0.0800
     37 H37        -2.4297    1.7852   55.3403 H       1  ZINC000487792031    0.0700
     38 H38        -3.2639    2.5398   52.8881 H       1  ZINC000487792031    0.4000
     39 H39        -4.2750    4.1627   51.0424 H       1  ZINC000487792031    0.0800
     40 H40        -2.7246    4.9824   51.3468 H       1  ZINC000487792031    0.0800
     41 H41        -0.7179    4.1533   50.4244 H       1  ZINC000487792031    0.1400
     42 H42         0.4164    2.5651   48.9230 H       1  ZINC000487792031    0.1400
     43 H43        -2.5110    1.2684   46.2749 H       1  ZINC000487792031    0.0800
     44 H44        -1.6251    2.0318   44.9331 H       1  ZINC000487792031    0.0800
     45 H45        -1.3661   -0.1813   43.8450 H       1  ZINC000487792031    0.0600
     46 H46        -2.2520   -0.9447   45.1867 H       1  ZINC000487792031    0.0600
     47 H47        -3.0836    0.2031   44.1102 H       1  ZINC000487792031    0.0700
     48 H48         1.5422    0.3400   45.7998 H       1  ZINC000487792031    0.0900
     49 H49         0.6506    1.0199   44.4174 H       1  ZINC000487792031    0.0900
     50 H50         0.5433    3.2148   45.5660 H       1  ZINC000487792031    0.0600
     51 H51         1.4348    2.5349   46.9485 H       1  ZINC000487792031    0.0600
     52 H52         2.2294    2.6819   45.3625 H       1  ZINC000487792031    0.0700
     53 H53        -3.1086    0.1676   48.7961 H       1  ZINC000487792031    0.1400
     54 H54        -4.2417    1.7537   50.3005 H       1  ZINC000487792031    0.1400
     55 H55        -3.6626    1.8260   56.9689 H       1  ZINC000487792031    0.1200
     56 H56        -5.8040    0.7001   57.4276 H       1  ZINC000487792031    0.1200
     57 H57        -7.8290    1.3544   56.1890 H       1  ZINC000487792031    0.1200
     58 H58        -7.7129    3.1351   54.4922 H       1  ZINC000487792031    0.1200
     59 H59        -5.5725    4.2642   54.0369 H       1  ZINC000487792031    0.1200
@<TRIPOS>BOND
     1     1     2    2
     2     1    31    1
     3     1    32    1
     4     2     3    1
     5     2    33    1
     6     3     4    1
     7     3    34    1
     8     3    35    1
     9     4     5    1
    10     4    36    1
    11     4    37    1
    12     5     6    1
    13     5     7    1
    14     5    25    1
    15     7     8    2
    16     7     9   am
    17     9    10    1
    18     9    38    1
    19    10    11    1
    20    10    39    1
    21    10    40    1
    22    11    24   ar
    23    11    12   ar
    24    12    13   ar
    25    12    41    1
    26    13    14   ar
    27    13    42    1
    28    14    15    1
    29    14    23   ar
    30    15    16    2
    31    15    17    2
    32    15    18   am
    33    18    19    1
    34    18    21    1
    35    19    20    1
    36    19    43    1
    37    19    44    1
    38    20    45    1
    39    20    46    1
    40    20    47    1
    41    21    22    1
    42    21    48    1
    43    21    49    1
    44    22    50    1
    45    22    51    1
    46    22    52    1
    47    23    24   ar
    48    23    53    1
    49    24    54    1
    50    25    30   ar
    51    25    26   ar
    52    26    27   ar
    53    26    55    1
    54    27    28   ar
    55    27    56    1
    56    28    29   ar
    57    28    57    1
    58    29    30   ar
    59    29    58    1
    60    30    59    1
@<TRIPOS>SUBSTRUCTURE
     1 ZINC000487792031        1 TEMP              0 ****  ****    0 ROOT


##########                                Name:    ZINC000552360217
##########                DOCK_Rotatable_Bonds:                  13
##########                         Heavy_Atoms:                  27
##########                    Molecular_Weight:             401.484
##########                DOCK_Rotatable_Bonds:                  13
##########                       Formal_Charge:          -0.0100002
##########                     HBond_Acceptors:                  10
##########                        HBond_Donors:                   3
##########                         Heavy_Atoms:                  27
##########                          Grid_Score:          -38.778656
##########                     Grid_vdw_energy:          -35.319508
##########                      Grid_es_energy:           -3.459148
##########           Internal_energy_repulsive:           16.148279

@<TRIPOS>MOLECULE
ZINC000552360217
 54 54 1 0 0
SMALL
USER_CHARGES


@<TRIPOS>ATOM
      1 C1         -0.5705    1.1074   45.4162 C.3     1  ZINC000552360217    0.0800
      2 N2         -1.2642    0.2108   46.3443 N.am    1  ZINC000552360217   -1.0000
      3 C3         -2.5408   -0.3963   45.9599 C.3     1  ZINC000552360217    0.0900
      4 S4         -0.6051   -0.1163   47.8279 S.o2    1  ZINC000552360217    2.7000
      5 O5         -1.5722   -0.8784   48.5373 O.2     1  ZINC000552360217   -0.9500
      6 O6          0.7192   -0.5717   47.5871 O.2     1  ZINC000552360217   -0.9500
      7 C7         -0.4562    1.4176   48.6820 C.ar    1  ZINC000552360217   -0.6900
      8 C8          0.7954    1.9577   48.9178 C.ar    1  ZINC000552360217    0.0100
      9 C9          0.9211    3.1621   49.5875 C.ar    1  ZINC000552360217   -0.1400
     10 C10        -0.2025    3.8322   50.0247 C.ar    1  ZINC000552360217   -0.0300
     11 C11        -1.4684    3.2928   49.7900 C.ar    1  ZINC000552360217   -0.1600
     12 C12        -2.6771    4.0058   50.2554 C.2     1  ZINC000552360217    0.5600
     13 O13        -2.8985    5.1390   49.8753 O.2     1  ZINC000552360217   -0.5300
     14 N14        -3.5335    3.3994   51.1011 N.am    1  ZINC000552360217   -0.7100
     15 C15        -4.7321    4.1052   51.5609 C.3     1  ZINC000552360217    0.1000
     16 C16        -4.5465    4.5288   52.9952 C.2     1  ZINC000552360217    0.5100
     17 O17        -4.7022    5.6897   53.3097 O.2     1  ZINC000552360217   -0.5400
     18 N18        -4.2072    3.6174   53.9285 N.am    1  ZINC000552360217   -0.7200
     19 C19        -4.0284    4.0289   55.3231 C.3     1  ZINC000552360217    0.1400
     20 C20        -3.3450    2.9039   56.1030 C.3     1  ZINC000552360217    0.1000
     21 C21        -2.7463    3.4684   57.3929 C.3     1  ZINC000552360217   -0.1800
     22 C22        -4.3731    1.8246   56.4477 C.3     1  ZINC000552360217   -0.1800
     23 O23        -2.3055    2.3342   55.3050 O.3     1  ZINC000552360217   -0.3700
     24 C24        -1.2915    3.2648   54.9205 C.3     1  ZINC000552360217    0.0600
     25 C25         0.0330    2.8778   55.5813 C.3     1  ZINC000552360217    0.0800
     26 O26         0.3660    1.5334   55.2293 O.3     1  ZINC000552360217   -0.5700
     27 C27        -1.5885    2.0803   49.1095 C.ar    1  ZINC000552360217    0.0400
     28 H28        -0.9005    2.1322   45.5860 H       1  ZINC000552360217    0.0600
     29 H29         0.5049    1.0399   45.5812 H       1  ZINC000552360217    0.0900
     30 H30        -0.7997    0.8170   44.3909 H       1  ZINC000552360217    0.0800
     31 H31        -2.8126   -0.0666   44.9571 H       1  ZINC000552360217    0.0800
     32 H32        -2.4450   -1.4820   45.9719 H       1  ZINC000552360217    0.0700
     33 H33        -3.3146   -0.0920   46.6647 H       1  ZINC000552360217    0.0600
     34 H34         1.6784    1.4368   48.5778 H       1  ZINC000552360217    0.1500
     35 H35         1.9012    3.5781   49.7686 H       1  ZINC000552360217    0.1400
     36 H36        -0.1030    4.7719   50.5475 H       1  ZINC000552360217    0.1400
     37 H37        -3.3563    2.4955   51.4055 H       1  ZINC000552360217    0.4100
     38 H38        -4.8955    4.9863   50.9402 H       1  ZINC000552360217    0.1000
     39 H39        -5.5947    3.4431   51.4863 H       1  ZINC000552360217    0.1000
     40 H40        -4.0814    2.6892   53.6767 H       1  ZINC000552360217    0.4100
     41 H41        -3.4095    4.9253   55.3609 H       1  ZINC000552360217    0.0800
     42 H42        -5.0012    4.2400   55.7672 H       1  ZINC000552360217    0.0900
     43 H43        -3.5391    3.9029   58.0017 H       1  ZINC000552360217    0.0700
     44 H44        -2.2593    2.6670   57.9486 H       1  ZINC000552360217    0.0700
     45 H45        -2.0138    4.2374   57.1475 H       1  ZINC000552360217    0.0700
     46 H46        -4.7997    1.4224   55.5287 H       1  ZINC000552360217    0.0600
     47 H47        -3.8862    1.0231   57.0033 H       1  ZINC000552360217    0.0700
     48 H48        -5.1660    2.2592   57.0564 H       1  ZINC000552360217    0.0700
     49 H49        -1.1754    3.2485   53.8368 H       1  ZINC000552360217    0.0600
     50 H50        -1.5779    4.2668   55.2402 H       1  ZINC000552360217    0.0700
     51 H51         0.8202    3.5489   55.2378 H       1  ZINC000552360217    0.0600
     52 H52        -0.0646    2.9564   56.6641 H       1  ZINC000552360217    0.0500
     53 H53        -0.2958    0.8813   55.4975 H       1  ZINC000552360217    0.3800
     54 H54        -2.5650    1.6577   48.9248 H       1  ZINC000552360217    0.1500
@<TRIPOS>BOND
     1     1     2    1
     2     1    28    1
     3     1    29    1
     4     1    30    1
     5     2     3    1
     6     2     4   am
     7     3    31    1
     8     3    32    1
     9     3    33    1
    10     4     5    2
    11     4     6    2
    12     4     7    1
    13     7    27   ar
    14     7     8   ar
    15     8     9   ar
    16     8    34    1
    17     9    10   ar
    18     9    35    1
    19    10    11   ar
    20    10    36    1
    21    11    12    1
    22    11    27   ar
    23    12    13    2
    24    12    14   am
    25    14    15    1
    26    14    37    1
    27    15    16    1
    28    15    38    1
    29    15    39    1
    30    16    17    2
    31    16    18   am
    32    18    19    1
    33    18    40    1
    34    19    20    1
    35    19    41    1
    36    19    42    1
    37    20    21    1
    38    20    22    1
    39    20    23    1
    40    21    43    1
    41    21    44    1
    42    21    45    1
    43    22    46    1
    44    22    47    1
    45    22    48    1
    46    23    24    1
    47    24    25    1
    48    24    49    1
    49    24    50    1
    50    25    26    1
    51    25    51    1
    52    25    52    1
    53    26    53    1
    54    27    54    1
@<TRIPOS>SUBSTRUCTURE
     1 ZINC000552360217        1 TEMP              0 ****  ****    0 ROOT


##########                                Name:    ZINC000484900616
##########                DOCK_Rotatable_Bonds:                  10
##########                         Heavy_Atoms:                  29
##########                    Molecular_Weight:             415.556
##########                DOCK_Rotatable_Bonds:                  10
##########                       Formal_Charge:        -1.49012e-08
##########                     HBond_Acceptors:                   7
##########                        HBond_Donors:                   1
##########                         Heavy_Atoms:                  29
##########                          Grid_Score:          -38.392448
##########                     Grid_vdw_energy:          -35.871143
##########                      Grid_es_energy:           -2.521304
##########           Internal_energy_repulsive:            8.524556

@<TRIPOS>MOLECULE
ZINC000484900616
 58 60 1 0 0
SMALL
USER_CHARGES


@<TRIPOS>ATOM
      1 C1          0.7058    1.0006   58.5775 C.3     1  ZINC000484900616   -0.1500
      2 C2          0.9485    1.3655   57.1116 C.3     1  ZINC000484900616    0.0600
      3 O3         -0.2025    2.0840   56.5948 O.3     1  ZINC000484900616   -0.3400
      4 C4         -0.1599    2.4581   55.3005 C.2     1  ZINC000484900616    0.5500
      5 O5          0.8525    2.2839   54.6506 O.2     1  ZINC000484900616   -0.5000
      6 C6         -1.3385    3.0771   54.6744 C.2     1  ZINC000484900616    0.0200
      7 C7         -2.4914    3.3146   55.3411 C.2     1  ZINC000484900616   -0.2400
      8 S8         -3.6085    4.0401   54.2697 S.3     1  ZINC000484900616    0.2900
      9 C9         -2.4737    3.9848   52.9949 C.2     1  ZINC000484900616    0.0300
     10 C10        -2.7296    4.4838   51.5960 C.3     1  ZINC000484900616    0.1500
     11 H11        -3.7888    4.4015   51.3525 H       1  ZINC000484900616    0.0900
     12 C12        -2.2554    5.9514   51.4519 C.3     1  ZINC000484900616   -0.1200
     13 C13        -2.0068    6.0517   49.9238 C.3     1  ZINC000484900616   -0.1400
     14 C14        -1.4629    4.6522   49.5674 C.3     1  ZINC000484900616    0.0500
     15 N15        -1.9170    3.7244   50.6219 N.3     1  ZINC000484900616   -0.5100
     16 C16        -2.6817    2.6090   50.0484 C.3     1  ZINC000484900616    0.0300
     17 C17        -1.7334    1.6193   49.4220 C.2     1  ZINC000484900616    0.5200
     18 O18        -0.5378    1.7363   49.5885 O.2     1  ZINC000484900616   -0.5100
     19 N19        -2.2140    0.6044   48.6769 N.am    1  ZINC000484900616   -0.7300
     20 C20        -1.2922   -0.3587   48.0694 C.3     1  ZINC000484900616    0.1900
     21 H21        -0.5137   -0.6189   48.7866 H       1  ZINC000484900616    0.1000
     22 C22        -2.0616   -1.6201   47.6719 C.3     1  ZINC000484900616   -0.1600
     23 C23        -0.6625    0.2525   46.8443 C.ar    1  ZINC000484900616   -0.1000
     24 C24         0.7103    0.3984   46.7724 C.ar    1  ZINC000484900616   -0.1100
     25 C25         1.2879    0.9590   45.6486 C.ar    1  ZINC000484900616   -0.1100
     26 C26         0.4928    1.3734   44.5965 C.ar    1  ZINC000484900616   -0.0800
     27 C27         1.1224    1.9851   43.3715 C.3     1  ZINC000484900616   -0.0900
     28 C28         1.0804    3.5103   43.4841 C.3     1  ZINC000484900616   -0.1500
     29 C29        -0.8799    1.2263   44.6678 C.ar    1  ZINC000484900616   -0.1100
     30 C30        -1.4572    0.6621   45.7900 C.ar    1  ZINC000484900616   -0.1000
     31 N31        -1.3686    3.4628   53.3956 N.2     1  ZINC000484900616   -0.4300
     32 H32         0.5547    1.9106   59.1583 H       1  ZINC000484900616    0.0700
     33 H33        -0.1801    0.3700   58.6531 H       1  ZINC000484900616    0.0700
     34 H34         1.5700    0.4612   58.9656 H       1  ZINC000484900616    0.0800
     35 H35         1.8343    1.9961   57.0361 H       1  ZINC000484900616    0.0700
     36 H36         1.0997    0.4556   56.5309 H       1  ZINC000484900616    0.0700
     37 H37        -2.6759    3.0837   56.3799 H       1  ZINC000484900616    0.1900
     38 H38        -3.0340    6.6461   51.7672 H       1  ZINC000484900616    0.0900
     39 H39        -1.3342    6.1206   52.0092 H       1  ZINC000484900616    0.0800
     40 H40        -2.9386    6.2494   49.3939 H       1  ZINC000484900616    0.0700
     41 H41        -1.2663    6.8205   49.7034 H       1  ZINC000484900616    0.0800
     42 H42        -1.8578    4.3356   48.6021 H       1  ZINC000484900616    0.0600
     43 H43        -0.3736    4.6747   49.5356 H       1  ZINC000484900616    0.0900
     44 H44        -3.2526    2.1170   50.8358 H       1  ZINC000484900616    0.1100
     45 H45        -3.3642    2.9894   49.2883 H       1  ZINC000484900616    0.0700
     46 H46        -3.1701    0.5116   48.5426 H       1  ZINC000484900616    0.4000
     47 H47        -1.3759   -2.3367   47.2199 H       1  ZINC000484900616    0.0700
     48 H48        -2.5170   -2.0622   48.5580 H       1  ZINC000484900616    0.0700
     49 H49        -2.8401   -1.3600   46.9547 H       1  ZINC000484900616    0.0600
     50 H50         1.3315    0.0746   47.5944 H       1  ZINC000484900616    0.1200
     51 H51         2.3604    1.0737   45.5928 H       1  ZINC000484900616    0.1200
     52 H52         2.1581    1.6549   43.2921 H       1  ZINC000484900616    0.0700
     53 H53         0.5718    1.6709   42.4847 H       1  ZINC000484900616    0.0700
     54 H54         0.0446    3.8404   43.5634 H       1  ZINC000484900616    0.0600
     55 H55         1.6309    3.8245   44.3708 H       1  ZINC000484900616    0.0600
     56 H56         1.5357    3.9527   42.5980 H       1  ZINC000484900616    0.0600
     57 H57        -1.5011    1.5497   43.8456 H       1  ZINC000484900616    0.1200
     58 H58        -2.5297    0.5471   45.8457 H       1  ZINC000484900616    0.1200
@<TRIPOS>BOND
     1     1     2    1
     2     1    32    1
     3     1    33    1
     4     1    34    1
     5     2     3    1
     6     2    35    1
     7     2    36    1
     8     3     4    1
     9     4     5    2
    10     4     6    1
    11     6    31    1
    12     6     7    2
    13     7     8    1
    14     7    37    1
    15     8     9    1
    16     9    10    1
    17     9    31    2
    18    10    11    1
    19    10    15    1
    20    10    12    1
    21    12    13    1
    22    12    38    1
    23    12    39    1
    24    13    14    1
    25    13    40    1
    26    13    41    1
    27    14    15    1
    28    14    42    1
    29    14    43    1
    30    15    16    1
    31    16    17    1
    32    16    44    1
    33    16    45    1
    34    17    18    2
    35    17    19   am
    36    19    20    1
    37    19    46    1
    38    20    21    1
    39    20    22    1
    40    20    23    1
    41    22    47    1
    42    22    48    1
    43    22    49    1
    44    23    30   ar
    45    23    24   ar
    46    24    25   ar
    47    24    50    1
    48    25    26   ar
    49    25    51    1
    50    26    27    1
    51    26    29   ar
    52    27    28    1
    53    27    52    1
    54    27    53    1
    55    28    54    1
    56    28    55    1
    57    28    56    1
    58    29    30   ar
    59    29    57    1
    60    30    58    1
@<TRIPOS>SUBSTRUCTURE
     1 ZINC000484900616        1 TEMP              0 ****  ****    0 ROOT


##########                                Name:    ZINC001596273020
##########                DOCK_Rotatable_Bonds:                  11
##########                         Heavy_Atoms:                  25
##########                    Molecular_Weight:             355.478
##########                DOCK_Rotatable_Bonds:                  11
##########                       Formal_Charge:          -0.0499996
##########                     HBond_Acceptors:                   7
##########                        HBond_Donors:                   2
##########                         Heavy_Atoms:                  25
##########                          Grid_Score:          -38.235226
##########                     Grid_vdw_energy:          -34.195053
##########                      Grid_es_energy:           -4.040172
##########           Internal_energy_repulsive:           20.369024

@<TRIPOS>MOLECULE
ZINC001596273020
 58 59 1 0 0
SMALL
USER_CHARGES


@<TRIPOS>ATOM
      1 C1         -2.8324    1.9744   56.8193 C.3     1  ZINC001596273020   -0.1900
      2 C2         -3.6354    3.2466   56.5409 C.3     1  ZINC001596273020   -0.0200
      3 N3         -4.3520    3.1043   55.2665 N.4     1  ZINC001596273020   -0.3900
      4 H4         -4.2827    2.1500   54.9464 H       1  ZINC001596273020    0.4300
      5 C5         -5.7656    3.4551   55.4577 C.3     1  ZINC001596273020   -0.0100
      6 C6         -6.5090    3.3203   54.1273 C.3     1  ZINC001596273020   -0.1900
      7 C7         -3.7559    4.0005   54.2668 C.3     1  ZINC001596273020   -0.0100
      8 C8         -2.2844    3.6331   54.0653 C.3     1  ZINC001596273020    0.0300
      9 O9         -1.7742    4.3208   52.9212 O.3     1  ZINC001596273020   -0.3900
     10 C10        -2.3082    3.8581   51.6791 C.3     1  ZINC001596273020    0.0500
     11 C11        -1.7311    4.6923   50.5336 C.3     1  ZINC001596273020    0.1400
     12 N12        -1.5600    3.8454   49.3506 N.am    1  ZINC001596273020   -0.7500
     13 C13        -0.4193    3.1478   49.1805 C.2     1  ZINC001596273020    0.7200
     14 O14         0.4683    3.2228   50.0081 O.2     1  ZINC001596273020   -0.6000
     15 N15        -0.2625    2.3674   48.0930 N.am    1  ZINC001596273020   -0.6300
     16 C16         0.9074    1.5261   47.7390 C.3     1  ZINC001596273020    0.1100
     17 C17         0.2648    0.2187   47.1922 C.3     1  ZINC001596273020   -0.0800
     18 H18         0.8994   -0.2057   46.4142 H       1  ZINC001596273020    0.1200
     19 C19         0.1546   -0.7538   48.3495 C.3     1  ZINC001596273020   -0.1000
     20 C20        -1.0190   -1.7128   48.2067 C.3     1  ZINC001596273020   -0.1200
     21 C21        -2.3045   -0.8803   48.1111 C.3     1  ZINC001596273020   -0.1200
     22 C22        -2.2756   -0.1385   46.7787 C.3     1  ZINC001596273020   -0.0800
     23 C23        -1.0430    0.6813   46.5886 C.3     1  ZINC001596273020   -0.1400
     24 C24        -0.8027    0.7201   45.1014 C.2     1  ZINC001596273020    0.5000
     25 O25        -1.6962    0.4120   44.3312 O.co2   1  ZINC001596273020   -0.6900
     26 O26         0.2853    1.0596   44.6683 O.co2   1  ZINC001596273020   -0.6900
     27 C27        -1.2230    2.1511   46.9836 C.3     1  ZINC001596273020    0.1600
     28 H28        -3.5163    1.1425   56.9871 H       1  ZINC001596273020    0.0800
     29 H29        -2.1942    1.7531   55.9639 H       1  ZINC001596273020    0.0800
     30 H30        -2.2146    2.1213   57.7053 H       1  ZINC001596273020    0.1000
     31 H31        -4.3532    3.4065   57.3455 H       1  ZINC001596273020    0.1300
     32 H32        -2.9579    4.0986   56.4837 H       1  ZINC001596273020    0.1300
     33 H33        -6.2104    2.7838   56.1922 H       1  ZINC001596273020    0.1300
     34 H34        -5.8400    4.4830   55.8130 H       1  ZINC001596273020    0.1300
     35 H35        -6.1381    4.0682   53.4264 H       1  ZINC001596273020    0.0800
     36 H36        -6.3426    2.3241   53.7176 H       1  ZINC001596273020    0.0800
     37 H37        -7.5760    3.4727   54.2903 H       1  ZINC001596273020    0.1000
     38 H38        -4.2891    3.8967   53.3218 H       1  ZINC001596273020    0.1400
     39 H39        -3.8287    5.0314   54.6137 H       1  ZINC001596273020    0.1400
     40 H40        -1.7135    3.9224   54.9475 H       1  ZINC001596273020    0.1000
     41 H41        -2.1962    2.5576   53.9119 H       1  ZINC001596273020    0.0700
     42 H42        -2.0411    2.8110   51.5363 H       1  ZINC001596273020    0.0700
     43 H43        -3.3935    3.9581   51.6904 H       1  ZINC001596273020    0.0700
     44 H44        -2.4134    5.5095   50.2998 H       1  ZINC001596273020    0.0900
     45 H45        -0.7651    5.0997   50.8318 H       1  ZINC001596273020    0.0700
     46 H46        -2.2676    3.7864   48.6898 H       1  ZINC001596273020    0.3900
     47 H47         1.5084    2.0093   46.9687 H       1  ZINC001596273020    0.0700
     48 H48         1.5105    1.3166   48.6224 H       1  ZINC001596273020    0.0600
     49 H49         1.0760   -1.3328   48.4109 H       1  ZINC001596273020    0.0500
     50 H50         0.0355   -0.1880   49.2735 H       1  ZINC001596273020    0.0400
     51 H51        -0.8988   -2.3098   47.3027 H       1  ZINC001596273020    0.0700
     52 H52        -1.0678   -2.3671   49.0770 H       1  ZINC001596273020    0.0500
     53 H53        -3.1738   -1.5367   48.1501 H       1  ZINC001596273020    0.0600
     54 H54        -2.3433   -0.1645   48.9321 H       1  ZINC001596273020    0.0500
     55 H55        -2.3408   -0.8674   45.9708 H       1  ZINC001596273020    0.0600
     56 H56        -3.1441    0.5181   46.7249 H       1  ZINC001596273020    0.0600
     57 H57        -2.2441    2.3318   47.3195 H       1  ZINC001596273020    0.0700
     58 H58        -0.9769    2.8027   46.1452 H       1  ZINC001596273020    0.0700
@<TRIPOS>BOND
     1     1     2    1
     2     1    28    1
     3     1    29    1
     4     1    30    1
     5     2     3    1
     6     2    31    1
     7     2    32    1
     8     3     4    1
     9     3     5    1
    10     3     7    1
    11     5     6    1
    12     5    33    1
    13     5    34    1
    14     6    35    1
    15     6    36    1
    16     6    37    1
    17     7     8    1
    18     7    38    1
    19     7    39    1
    20     8     9    1
    21     8    40    1
    22     8    41    1
    23     9    10    1
    24    10    11    1
    25    10    42    1
    26    10    43    1
    27    11    12    1
    28    11    44    1
    29    11    45    1
    30    12    13   am
    31    12    46    1
    32    13    14    2
    33    13    15   am
    34    15    27    1
    35    15    16    1
    36    16    17    1
    37    16    47    1
    38    16    48    1
    39    17    18    1
    40    17    23    1
    41    17    19    1
    42    19    20    1
    43    19    49    1
    44    19    50    1
    45    20    21    1
    46    20    51    1
    47    20    52    1
    48    21    22    1
    49    21    53    1
    50    21    54    1
    51    22    23    1
    52    22    55    1
    53    22    56    1
    54    23    24    1
    55    23    27    1
    56    24    25   ar
    57    24    26   ar
    58    27    57    1
    59    27    58    1
@<TRIPOS>SUBSTRUCTURE
     1 ZINC001596273020        1 TEMP              0 ****  ****    0 ROOT


##########                                Name:    ZINC000546142192
##########                DOCK_Rotatable_Bonds:                  12
##########                         Heavy_Atoms:                  31
##########                    Molecular_Weight:             420.511
##########                DOCK_Rotatable_Bonds:                  12
##########                       Formal_Charge:          -0.0599997
##########                     HBond_Acceptors:                   7
##########                        HBond_Donors:                   2
##########                         Heavy_Atoms:                  31
##########                          Grid_Score:          -37.986828
##########                     Grid_vdw_energy:          -36.939049
##########                      Grid_es_energy:           -1.047778
##########           Internal_energy_repulsive:           11.048077

@<TRIPOS>MOLECULE
ZINC000546142192
 59 61 1 0 0
SMALL
USER_CHARGES


@<TRIPOS>ATOM
      1 C1          0.9733    2.3704   42.9397 C.3     1  ZINC000546142192    0.0300
      2 O2         -0.1738    2.3182   43.8285 O.3     1  ZINC000546142192   -0.3600
      3 C3         -0.1666    1.3694   44.7779 C.2     1  ZINC000546142192    0.4600
      4 O4          0.7359    0.5672   44.8234 O.2     1  ZINC000546142192   -0.5100
      5 C5         -1.2839    1.3047   45.7871 C.3     1  ZINC000546142192   -0.0800
      6 H6         -1.7964    2.2659   45.8237 H       1  ZINC000546142192    0.1100
      7 C7         -2.2756    0.2129   45.3806 C.3     1  ZINC000546142192   -0.1500
      8 C8         -0.7067    0.9816   47.1668 C.3     1  ZINC000546142192   -0.0600
      9 C9         -1.4832    1.7254   48.2228 C.ar    1  ZINC000546142192   -0.1000
     10 C10        -1.1866    3.0486   48.4935 C.ar    1  ZINC000546142192   -0.0900
     11 C11        -1.8967    3.7331   49.4604 C.ar    1  ZINC000546142192   -0.1200
     12 C12        -2.9094    3.0911   50.1608 C.ar    1  ZINC000546142192    0.1600
     13 N13        -3.6311    3.7820   51.1408 N.am    1  ZINC000546142192   -0.6900
     14 C14        -3.1545    3.8599   52.3991 C.2     1  ZINC000546142192    0.7100
     15 O15        -2.0976    3.3300   52.6828 O.2     1  ZINC000546142192   -0.5700
     16 N16        -3.8495    4.5252   53.3430 N.am    1  ZINC000546142192   -0.7400
     17 C17        -3.3323    4.6085   54.7111 C.3     1  ZINC000546142192    0.2300
     18 C18        -3.7291    3.3711   55.4743 C.2     1  ZINC000546142192    0.1800
     19 N19        -4.9456    2.9189   55.6104 N.2     1  ZINC000546142192   -0.4700
     20 C20        -4.9217    1.8007   56.3506 C.2     1  ZINC000546142192   -0.0300
     21 C21        -3.6417    1.5503   56.6859 C.2     1  ZINC000546142192   -0.0400
     22 N22        -2.8841    2.5433   56.1257 N.pl3   1  ZINC000546142192   -0.4500
     23 C23        -1.4293    2.6862   56.2222 C.3     1  ZINC000546142192    0.1100
     24 C24        -0.9654    2.2526   57.6142 C.3     1  ZINC000546142192   -0.0900
     25 C25         0.5404    2.2732   57.6709 C.ar    1  ZINC000546142192   -0.0900
     26 C26         1.2606    1.1445   57.3267 C.ar    1  ZINC000546142192   -0.1100
     27 C27         2.6419    1.1635   57.3788 C.ar    1  ZINC000546142192   -0.1200
     28 C28         3.3029    2.3113   57.7747 C.ar    1  ZINC000546142192   -0.1200
     29 C29         2.5827    3.4401   58.1180 C.ar    1  ZINC000546142192   -0.1200
     30 C30         1.2016    3.4225   58.0618 C.ar    1  ZINC000546142192   -0.1100
     31 C31        -3.2048    1.7622   49.8866 C.ar    1  ZINC000546142192   -0.1500
     32 C32        -2.4946    1.0848   48.9149 C.ar    1  ZINC000546142192   -0.0900
     33 H33         1.0635    1.4237   42.4071 H       1  ZINC000546142192    0.0600
     34 H34         0.8404    3.1799   42.2221 H       1  ZINC000546142192    0.1000
     35 H35         1.8770    2.5466   43.5230 H       1  ZINC000546142192    0.0600
     36 H36        -1.7630   -0.7483   45.3441 H       1  ZINC000546142192    0.0600
     37 H37        -3.0837    0.1661   46.1107 H       1  ZINC000546142192    0.0800
     38 H38        -2.6867    0.4431   44.3978 H       1  ZINC000546142192    0.0700
     39 H39        -0.7802   -0.0905   47.3494 H       1  ZINC000546142192    0.0800
     40 H40         0.3394    1.2856   47.2034 H       1  ZINC000546142192    0.0800
     41 H41        -0.3987    3.5472   47.9487 H       1  ZINC000546142192    0.1300
     42 H42        -1.6643    4.7663   49.6717 H       1  ZINC000546142192    0.1400
     43 H43        -4.4743    4.2046   50.9145 H       1  ZINC000546142192    0.4100
     44 H44        -4.6920    4.9490   53.1163 H       1  ZINC000546142192    0.4000
     45 H45        -2.2453    4.6859   54.6845 H       1  ZINC000546142192    0.0800
     46 H46        -3.7473    5.4878   55.2035 H       1  ZINC000546142192    0.1000
     47 H47        -5.7788    1.2053   56.6289 H       1  ZINC000546142192    0.1700
     48 H48        -3.2816    0.7228   57.2791 H       1  ZINC000546142192    0.1800
     49 H49        -0.9519    2.0598   55.4686 H       1  ZINC000546142192    0.1000
     50 H50        -1.1546    3.7278   56.0558 H       1  ZINC000546142192    0.0900
     51 H51        -1.3666    2.9379   58.3608 H       1  ZINC000546142192    0.0800
     52 H52        -1.3229    1.2432   57.8182 H       1  ZINC000546142192    0.0800
     53 H53         0.7442    0.2479   57.0175 H       1  ZINC000546142192    0.1200
     54 H54         3.2044    0.2815   57.1105 H       1  ZINC000546142192    0.1200
     55 H55         4.3820    2.3258   57.8160 H       1  ZINC000546142192    0.1200
     56 H56         3.0992    4.3367   58.4276 H       1  ZINC000546142192    0.1200
     57 H57         0.6389    4.3044   58.3300 H       1  ZINC000546142192    0.1200
     58 H58        -3.9919    1.2602   50.4296 H       1  ZINC000546142192    0.1300
     59 H59        -2.7241    0.0513   48.7008 H       1  ZINC000546142192    0.1300
@<TRIPOS>BOND
     1     1     2    1
     2     1    33    1
     3     1    34    1
     4     1    35    1
     5     2     3    1
     6     3     4    2
     7     3     5    1
     8     5     6    1
     9     5     7    1
    10     5     8    1
    11     7    36    1
    12     7    37    1
    13     7    38    1
    14     8     9    1
    15     8    39    1
    16     8    40    1
    17     9    32   ar
    18     9    10   ar
    19    10    11   ar
    20    10    41    1
    21    11    12   ar
    22    11    42    1
    23    12    13    1
    24    12    31   ar
    25    13    14   am
    26    13    43    1
    27    14    15    2
    28    14    16   am
    29    16    17    1
    30    16    44    1
    31    17    18    1
    32    17    45    1
    33    17    46    1
    34    18    22    1
    35    18    19    2
    36    19    20    1
    37    20    21    2
    38    20    47    1
    39    21    22    1
    40    21    48    1
    41    22    23    1
    42    23    24    1
    43    23    49    1
    44    23    50    1
    45    24    25    1
    46    24    51    1
    47    24    52    1
    48    25    30   ar
    49    25    26   ar
    50    26    27   ar
    51    26    53    1
    52    27    28   ar
    53    27    54    1
    54    28    29   ar
    55    28    55    1
    56    29    30   ar
    57    29    56    1
    58    30    57    1
    59    31    32   ar
    60    31    58    1
    61    32    59    1
@<TRIPOS>SUBSTRUCTURE
     1 ZINC000546142192        1 TEMP              0 ****  ****    0 ROOT


##########                                Name:    ZINC000474251633
##########                DOCK_Rotatable_Bonds:                   8
##########                         Heavy_Atoms:                  28
##########                    Molecular_Weight:             416.931
##########                DOCK_Rotatable_Bonds:                   8
##########                       Formal_Charge:          0.00999953
##########                     HBond_Acceptors:                   8
##########                        HBond_Donors:                   2
##########                         Heavy_Atoms:                  28
##########                          Grid_Score:          -37.791836
##########                     Grid_vdw_energy:          -35.383091
##########                      Grid_es_energy:           -2.408745
##########           Internal_energy_repulsive:           10.594787

@<TRIPOS>MOLECULE
ZINC000474251633
 49 52 1 0 0
SMALL
USER_CHARGES


@<TRIPOS>ATOM
      1 O1         -6.0835    4.8152   52.6790 O.2     1  ZINC000474251633   -0.5300
      2 C2         -5.3950    3.8541   52.4083 C.2     1  ZINC000474251633    0.5100
      3 C3         -3.9664    4.0501   51.9705 C.3     1  ZINC000474251633    0.1000
      4 N4         -3.7555    3.3877   50.6809 N.am    1  ZINC000474251633   -0.7100
      5 C5         -2.6409    2.6596   50.4716 C.2     1  ZINC000474251633    0.5900
      6 O6         -1.8104    2.5511   51.3541 O.2     1  ZINC000474251633   -0.5000
      7 C7         -2.4288    1.9972   49.1784 C.2     1  ZINC000474251633   -0.2300
      8 C8         -1.7390    2.5219   48.1587 C.2     1  ZINC000474251633    0.0400
      9 Cl9        -0.9955    4.0880   48.2519 Cl      1  ZINC000474251633   -0.0100
     10 C10        -1.6561    1.7200   47.0074 C.ar    1  ZINC000474251633   -0.0900
     11 C11        -1.0053    1.9924   45.7809 C.ar    1  ZINC000474251633   -0.0600
     12 C12        -1.0333    1.0854   44.7685 C.ar    1  ZINC000474251633   -0.1200
     13 C13        -1.7001   -0.1242   44.9184 C.ar    1  ZINC000474251633   -0.0800
     14 C14        -2.3421   -0.4176   46.0976 C.ar    1  ZINC000474251633   -0.0900
     15 C15        -2.3269    0.4992   47.1536 C.ar    1  ZINC000474251633   -0.1200
     16 S16        -3.0388    0.4059   48.7604 S.3     1  ZINC000474251633    0.1700
     17 N17        -5.9058    2.6106   52.5043 N.am    1  ZINC000474251633   -0.7200
     18 C18        -7.2946    2.4202   52.9299 C.3     1  ZINC000474251633    0.2100
     19 C19        -7.3417    2.2412   54.4255 C.2     1  ZINC000474251633    0.0500
     20 N20        -8.3406    1.7424   55.1074 N.2     1  ZINC000474251633   -0.2700
     21 N21        -7.9903    1.7471   56.4638 N.pl3   1  ZINC000474251633   -0.3600
     22 C22        -8.8245    1.2733   57.5710 C.3     1  ZINC000474251633    0.1500
     23 C23        -7.9353    0.8423   58.7556 C.3     1  ZINC000474251633   -0.1400
     24 C24        -7.8967    2.0884   59.6747 C.3     1  ZINC000474251633   -0.1300
     25 C25        -9.3398    2.6399   59.5636 C.3     1  ZINC000474251633   -0.1200
     26 C26        -9.7175    2.4162   58.0848 C.3     1  ZINC000474251633   -0.1400
     27 C27        -6.7489    2.2651   56.5703 C.2     1  ZINC000474251633    0.0600
     28 C28        -6.3224    2.5739   55.3237 C.2     1  ZINC000474251633   -0.2600
     29 H29        -3.7601    5.1157   51.8696 H       1  ZINC000474251633    0.1100
     30 H30        -3.2960    3.6191   52.7142 H       1  ZINC000474251633    0.1100
     31 H31        -4.4182    3.4732   49.9777 H       1  ZINC000474251633    0.4100
     32 H32        -0.4827    2.9281   45.6479 H       1  ZINC000474251633    0.1300
     33 H33        -0.5323    1.3075   43.8379 H       1  ZINC000474251633    0.1400
     34 H34        -1.7143   -0.8355   44.1059 H       1  ZINC000474251633    0.1400
     35 H35        -2.8596   -1.3590   46.2091 H       1  ZINC000474251633    0.1400
     36 H36        -5.3539    1.8418   52.2916 H       1  ZINC000474251633    0.4100
     37 H37        -7.8835    3.2935   52.6498 H       1  ZINC000474251633    0.0900
     38 H38        -7.7051    1.5345   52.4450 H       1  ZINC000474251633    0.0900
     39 H39        -9.4410    0.4367   57.2422 H       1  ZINC000474251633    0.1100
     40 H40        -8.3807   -0.0041   59.2788 H       1  ZINC000474251633    0.0900
     41 H41        -6.9325    0.5927   58.4089 H       1  ZINC000474251633    0.0800
     42 H42        -7.6699    1.8036   60.7021 H       1  ZINC000474251633    0.0800
     43 H43        -7.1751    2.8176   59.3065 H       1  ZINC000474251633    0.0700
     44 H44       -10.0119    2.0840   60.2173 H       1  ZINC000474251633    0.0700
     45 H45        -9.3619    3.7022   59.8066 H       1  ZINC000474251633    0.0700
     46 H46        -9.5302    3.3234   57.5103 H       1  ZINC000474251633    0.0700
     47 H47       -10.7673    2.1340   58.0061 H       1  ZINC000474251633    0.0800
     48 H48        -6.1933    2.4043   57.4860 H       1  ZINC000474251633    0.1700
     49 H49        -5.3664    3.0065   55.0682 H       1  ZINC000474251633    0.1500
@<TRIPOS>BOND
     1     1     2    2
     2     2     3    1
     3     2    17   am
     4     3     4    1
     5     3    29    1
     6     3    30    1
     7     4     5   am
     8     4    31    1
     9     5     6    2
    10     5     7    1
    11     7    16    1
    12     7     8    2
    13     8     9    1
    14     8    10    1
    15    10    15   ar
    16    10    11   ar
    17    11    12   ar
    18    11    32    1
    19    12    13   ar
    20    12    33    1
    21    13    14   ar
    22    13    34    1
    23    14    15   ar
    24    14    35    1
    25    15    16    1
    26    17    18    1
    27    17    36    1
    28    18    19    1
    29    18    37    1
    30    18    38    1
    31    19    28    1
    32    19    20    2
    33    20    21    1
    34    21    22    1
    35    21    27    1
    36    22    26    1
    37    22    23    1
    38    22    39    1
    39    23    24    1
    40    23    40    1
    41    23    41    1
    42    24    25    1
    43    24    42    1
    44    24    43    1
    45    25    26    1
    46    25    44    1
    47    25    45    1
    48    26    46    1
    49    26    47    1
    50    27    28    2
    51    27    48    1
    52    28    49    1
@<TRIPOS>SUBSTRUCTURE
     1 ZINC000474251633        1 TEMP              0 ****  ****    0 ROOT


##########                                Name:    ZINC000428266315
##########                DOCK_Rotatable_Bonds:                  10
##########                         Heavy_Atoms:                  30
##########                    Molecular_Weight:             423.438
##########                DOCK_Rotatable_Bonds:                  10
##########                       Formal_Charge:          0.00999977
##########                     HBond_Acceptors:                  10
##########                        HBond_Donors:                   0
##########                         Heavy_Atoms:                  30
##########                          Grid_Score:          -37.645294
##########                     Grid_vdw_energy:          -35.291454
##########                      Grid_es_energy:           -2.353842
##########           Internal_energy_repulsive:           10.986493

@<TRIPOS>MOLECULE
ZINC000428266315
 54 56 1 0 0
SMALL
USER_CHARGES


@<TRIPOS>ATOM
      1 C1         -8.4937    1.1106   59.3864 C.3     1  ZINC000428266315   -0.1500
      2 C2         -7.7852    1.0371   58.0323 C.3     1  ZINC000428266315    0.0600
      3 O3         -7.8705    2.3060   57.3806 O.3     1  ZINC000428266315   -0.3700
      4 C4         -7.1171    2.3891   56.1692 C.3     1  ZINC000428266315    0.1800
      5 H5         -7.4072    1.5754   55.5044 H       1  ZINC000428266315    0.0900
      6 C6         -7.3956    3.7296   55.4862 C.3     1  ZINC000428266315   -0.1700
      7 C7         -5.6472    2.2813   56.4835 C.2     1  ZINC000428266315    0.1700
      8 N8         -4.9617    1.1823   56.5881 N.2     1  ZINC000428266315   -0.3500
      9 O9         -3.8038    1.4329   56.8483 O.3     1  ZINC000428266315    0.0800
     10 C10        -3.6355    2.7557   56.9370 C.2     1  ZINC000428266315    0.1900
     11 C11        -2.3490    3.4781   57.2437 C.3     1  ZINC000428266315    0.1500
     12 N12        -1.7543    3.9711   55.9942 N.3     1  ZINC000428266315   -0.5300
     13 C13        -0.8015    5.0577   56.2575 C.3     1  ZINC000428266315    0.0200
     14 C14        -1.1144    2.8788   55.2490 C.3     1  ZINC000428266315    0.1400
     15 C15        -0.7306    3.3654   53.8753 C.2     1  ZINC000428266315   -0.2300
     16 C16        -1.5467    3.4330   52.7980 C.2     1  ZINC000428266315    0.0800
     17 N17        -0.8261    3.9200   51.7660 N.pl3   1  ZINC000428266315   -0.3700
     18 C18        -1.3185    4.1567   50.4067 C.3     1  ZINC000428266315    0.1700
     19 C19        -1.4633    2.8399   49.6885 C.ar    1  ZINC000428266315   -0.0800
     20 C20        -2.6983    2.2229   49.6184 C.ar    1  ZINC000428266315   -0.1000
     21 C21        -2.8311    1.0149   48.9595 C.ar    1  ZINC000428266315   -0.0700
     22 C22        -1.7289    0.4242   48.3703 C.ar    1  ZINC000428266315   -0.1700
     23 C23        -1.8736   -0.8929   47.6525 C.3     1  ZINC000428266315    0.5100
     24 F24        -2.9077   -1.6317   48.2374 F       1  ZINC000428266315   -0.1700
     25 F25        -2.1713   -0.6597   46.3055 F       1  ZINC000428266315   -0.1800
     26 F26        -0.6763   -1.6101   47.7481 F       1  ZINC000428266315   -0.1800
     27 C27        -0.4941    1.0419   48.4392 C.ar    1  ZINC000428266315   -0.0700
     28 C28        -0.3622    2.2517   49.0948 C.ar    1  ZINC000428266315   -0.0800
     29 N29         0.4758    4.1594   52.2244 N.2     1  ZINC000428266315   -0.2900
     30 C30         0.5302    3.8324   53.4900 C.2     1  ZINC000428266315    0.0600
     31 N31        -4.8026    3.3050   56.7014 N.2     1  ZINC000428266315   -0.4600
     32 H32        -8.4287    0.1427   59.8835 H       1  ZINC000428266315    0.0700
     33 H33        -8.0161    1.8699   60.0056 H       1  ZINC000428266315    0.0600
     34 H34        -9.5411    1.3715   59.2348 H       1  ZINC000428266315    0.0600
     35 H35        -6.7378    0.7762   58.1840 H       1  ZINC000428266315    0.0500
     36 H36        -8.2628    0.2777   57.4132 H       1  ZINC000428266315    0.0500
     37 H37        -7.1057    4.5432   56.1511 H       1  ZINC000428266315    0.0700
     38 H38        -6.8209    3.7929   54.5623 H       1  ZINC000428266315    0.0700
     39 H39        -8.4589    3.8075   55.2589 H       1  ZINC000428266315    0.0700
     40 H40        -2.5537    4.3197   57.9055 H       1  ZINC000428266315    0.0800
     41 H41        -1.6550    2.7932   57.7310 H       1  ZINC000428266315    0.1200
     42 H42        -0.0035    4.6926   56.9042 H       1  ZINC000428266315    0.0400
     43 H43        -0.3760    5.4040   55.3157 H       1  ZINC000428266315    0.0800
     44 H44        -1.3178    5.8827   56.7482 H       1  ZINC000428266315    0.0600
     45 H45        -0.2212    2.5506   55.7808 H       1  ZINC000428266315    0.0500
     46 H46        -1.8101    2.0447   55.1578 H       1  ZINC000428266315    0.0900
     47 H47        -2.5881    3.1483   52.7691 H       1  ZINC000428266315    0.1700
     48 H48        -2.2873    4.6541   50.4527 H       1  ZINC000428266315    0.1000
     49 H49        -0.6111    4.7880   49.8690 H       1  ZINC000428266315    0.1100
     50 H50        -3.5594    2.6844   50.0788 H       1  ZINC000428266315    0.1300
     51 H51        -3.7959    0.5325   48.9053 H       1  ZINC000428266315    0.1400
     52 H52         0.3669    0.5805   47.9786 H       1  ZINC000428266315    0.1400
     53 H53         0.6026    2.7343   49.1486 H       1  ZINC000428266315    0.1400
     54 H54         1.4005    3.9035   54.1256 H       1  ZINC000428266315    0.1800
@<TRIPOS>BOND
     1     1     2    1
     2     1    32    1
     3     1    33    1
     4     1    34    1
     5     2     3    1
     6     2    35    1
     7     2    36    1
     8     3     4    1
     9     4     5    1
    10     4     6    1
    11     4     7    1
    12     6    37    1
    13     6    38    1
    14     6    39    1
    15     7    31    1
    16     7     8    2
    17     8     9    1
    18     9    10    1
    19    10    11    1
    20    10    31    2
    21    11    12    1
    22    11    40    1
    23    11    41    1
    24    12    13    1
    25    12    14    1
    26    13    42    1
    27    13    43    1
    28    13    44    1
    29    14    15    1
    30    14    45    1
    31    14    46    1
    32    15    30    1
    33    15    16    2
    34    16    17    1
    35    16    47    1
    36    17    18    1
    37    17    29    1
    38    18    19    1
    39    18    48    1
    40    18    49    1
    41    19    28   ar
    42    19    20   ar
    43    20    21   ar
    44    20    50    1
    45    21    22   ar
    46    21    51    1
    47    22    23    1
    48    22    27   ar
    49    23    24    1
    50    23    25    1
    51    23    26    1
    52    27    28   ar
    53    27    52    1
    54    28    53    1
    55    29    30    2
    56    30    54    1
@<TRIPOS>SUBSTRUCTURE
     1 ZINC000428266315        1 TEMP              0 ****  ****    0 ROOT


##########                                Name:    ZINC000603906271
##########                DOCK_Rotatable_Bonds:                   8
##########                         Heavy_Atoms:                  29
##########                    Molecular_Weight:             391.473
##########                DOCK_Rotatable_Bonds:                   8
##########                       Formal_Charge:           0.0499998
##########                     HBond_Acceptors:                   7
##########                        HBond_Donors:                   3
##########                         Heavy_Atoms:                  29
##########                          Grid_Score:          -37.632641
##########                     Grid_vdw_energy:          -37.369770
##########                      Grid_es_energy:           -0.262872
##########           Internal_energy_repulsive:           23.850431

@<TRIPOS>MOLECULE
ZINC000603906271
 54 56 1 0 0
SMALL
USER_CHARGES


@<TRIPOS>ATOM
      1 C1         -5.6363    5.6589   52.8982 C.3     1  ZINC000603906271   -0.1600
      2 C2         -5.0805    4.2359   52.8160 C.3     1  ZINC000603906271    0.1300
      3 H3         -4.4774    4.0297   53.7002 H       1  ZINC000603906271    0.1200
      4 N4         -6.1900    3.2814   52.7482 N.am    1  ZINC000603906271   -0.7100
      5 C5         -6.8261    2.9065   53.8757 C.2     1  ZINC000603906271    0.5700
      6 O6         -6.4784    3.3589   54.9489 O.2     1  ZINC000603906271   -0.5300
      7 C7         -7.9469    1.9447   53.8071 C.ar    1  ZINC000603906271   -0.1400
      8 C8         -8.8198    1.8077   54.8875 C.ar    1  ZINC000603906271   -0.0800
      9 C9         -9.8639    0.9086   54.8171 C.ar    1  ZINC000603906271   -0.1200
     10 C10       -10.0463    0.1434   53.6788 C.ar    1  ZINC000603906271   -0.0400
     11 C11       -11.1886   -0.8370   53.6091 C.3     1  ZINC000603906271   -0.0400
     12 C12       -10.7135   -2.2088   54.0920 C.3     1  ZINC000603906271   -0.1400
     13 C13       -12.3330   -0.3508   54.5005 C.3     1  ZINC000603906271   -0.1500
     14 C14       -11.6790   -0.9468   52.1640 C.3     1  ZINC000603906271   -0.1400
     15 C15        -9.1847    0.2747   52.6041 C.ar    1  ZINC000603906271   -0.1300
     16 C16        -8.1399    1.1739   52.6597 C.ar    1  ZINC000603906271   -0.0500
     17 C17        -4.2257    4.1010   51.5823 C.2     1  ZINC000603906271    0.5100
     18 O18        -4.3970    4.8470   50.6413 O.2     1  ZINC000603906271   -0.5100
     19 N19        -3.2710    3.1515   51.5244 N.am    1  ZINC000603906271   -0.6700
     20 C20        -2.4772    3.0263   50.3787 C.ar    1  ZINC000603906271    0.1300
     21 C21        -1.4469    3.9285   50.1453 C.ar    1  ZINC000603906271   -0.1200
     22 C22        -0.6608    3.8080   49.0149 C.ar    1  ZINC000603906271   -0.1000
     23 C23        -0.8953    2.7910   48.1114 C.ar    1  ZINC000603906271   -0.0900
     24 C24        -1.9272    1.8817   48.3373 C.ar    1  ZINC000603906271    0.0000
     25 C25        -2.1810    0.7881   47.3666 C.2     1  ZINC000603906271    0.2700
     26 N26        -2.3941   -0.4732   47.6714 N.2     1  ZINC000603906271   -0.3000
     27 N27        -2.5861   -1.1549   46.4588 N.pl3   1  ZINC000603906271   -0.4800
     28 C28        -2.4732   -0.2369   45.4820 C.2     1  ZINC000603906271    0.2700
     29 N29        -2.2365    0.9233   46.0348 N.2     1  ZINC000603906271   -0.5300
     30 C30        -2.7152    1.9982   49.4788 C.ar    1  ZINC000603906271   -0.0800
     31 H31        -6.2394    5.8652   52.0140 H       1  ZINC000603906271    0.0700
     32 H32        -6.2546    5.7566   53.7906 H       1  ZINC000603906271    0.0800
     33 H33        -4.8109    6.3690   52.9487 H       1  ZINC000603906271    0.0700
     34 H34        -6.4666    2.9194   51.8919 H       1  ZINC000603906271    0.4100
     35 H35        -8.6782    2.4038   55.7769 H       1  ZINC000603906271    0.1300
     36 H36       -10.5402    0.8016   55.6523 H       1  ZINC000603906271    0.1300
     37 H37       -10.3641   -2.1307   55.1215 H       1  ZINC000603906271    0.0600
     38 H38       -11.5398   -2.9180   54.0416 H       1  ZINC000603906271    0.0600
     39 H39        -9.8982   -2.5552   53.4569 H       1  ZINC000603906271    0.0600
     40 H40       -12.6715    0.6266   54.1565 H       1  ZINC000603906271    0.0600
     41 H41       -13.1593   -1.0599   54.4501 H       1  ZINC000603906271    0.0600
     42 H42       -11.9836   -0.2726   55.5300 H       1  ZINC000603906271    0.0600
     43 H43       -10.8637   -1.2931   51.5289 H       1  ZINC000603906271    0.0600
     44 H44       -12.5053   -1.6558   52.1136 H       1  ZINC000603906271    0.0600
     45 H45       -12.0175    0.0306   51.8199 H       1  ZINC000603906271    0.0600
     46 H46        -9.3327   -0.3253   51.7184 H       1  ZINC000603906271    0.1400
     47 H47        -7.4683    1.2757   51.8200 H       1  ZINC000603906271    0.1400
     48 H48        -3.1340    2.5550   52.2770 H       1  ZINC000603906271    0.4200
     49 H49        -1.2598    4.7263   50.8489 H       1  ZINC000603906271    0.1300
     50 H50         0.1391    4.5118   48.8377 H       1  ZINC000603906271    0.1400
     51 H51        -0.2793    2.7002   47.2289 H       1  ZINC000603906271    0.1400
     52 H52        -2.7649   -2.1017   46.3474 H       1  ZINC000603906271    0.4400
     53 H53        -2.5667   -0.4255   44.4227 H       1  ZINC000603906271    0.2300
     54 H54        -3.5158    1.2960   49.6582 H       1  ZINC000603906271    0.1500
@<TRIPOS>BOND
     1     1     2    1
     2     1    31    1
     3     1    32    1
     4     1    33    1
     5     2     3    1
     6     2     4    1
     7     2    17    1
     8     4     5   am
     9     4    34    1
    10     5     6    2
    11     5     7    1
    12     7    16   ar
    13     7     8   ar
    14     8     9   ar
    15     8    35    1
    16     9    10   ar
    17     9    36    1
    18    10    11    1
    19    10    15   ar
    20    11    12    1
    21    11    13    1
    22    11    14    1
    23    12    37    1
    24    12    38    1
    25    12    39    1
    26    13    40    1
    27    13    41    1
    28    13    42    1
    29    14    43    1
    30    14    44    1
    31    14    45    1
    32    15    16   ar
    33    15    46    1
    34    16    47    1
    35    17    18    2
    36    17    19   am
    37    19    20    1
    38    19    48    1
    39    20    30   ar
    40    20    21   ar
    41    21    22   ar
    42    21    49    1
    43    22    23   ar
    44    22    50    1
    45    23    24   ar
    46    23    51    1
    47    24    25    1
    48    24    30   ar
    49    25    29    1
    50    25    26    2
    51    26    27    1
    52    27    28    1
    53    27    52    1
    54    28    29    2
    55    28    53    1
    56    30    54    1
@<TRIPOS>SUBSTRUCTURE
     1 ZINC000603906271        1 TEMP              0 ****  ****    0 ROOT


##########                                Name:    ZINC000482540246
##########                DOCK_Rotatable_Bonds:                  10
##########                         Heavy_Atoms:                  30
##########                    Molecular_Weight:              409.46
##########                DOCK_Rotatable_Bonds:                  10
##########                       Formal_Charge:         2.83122e-07
##########                     HBond_Acceptors:                   7
##########                        HBond_Donors:                   2
##########                         Heavy_Atoms:                  30
##########                          Grid_Score:          -37.579407
##########                     Grid_vdw_energy:          -34.828808
##########                      Grid_es_energy:           -2.750597
##########           Internal_energy_repulsive:           15.995563

@<TRIPOS>MOLECULE
ZINC000482540246
 54 56 1 0 0
SMALL
USER_CHARGES


@<TRIPOS>ATOM
      1 C1         -9.2680    1.9119   52.7930 C.3     1  ZINC000482540246    0.0400
      2 O2         -7.9665    2.0028   52.2100 O.3     1  ZINC000482540246   -0.3100
      3 C3         -7.0712    2.8152   52.8257 C.ar    1  ZINC000482540246    0.3300
      4 C4         -5.7832    2.9287   52.3187 C.ar    1  ZINC000482540246   -0.1800
      5 C5         -4.8793    3.7609   52.9562 C.ar    1  ZINC000482540246   -0.0100
      6 C6         -3.4725    3.9121   52.4375 C.3     1  ZINC000482540246    0.2000
      7 H7         -2.8056    3.2591   53.0003 H       1  ZINC000482540246    0.1000
      8 C8         -3.0218    5.3650   52.6015 C.3     1  ZINC000482540246   -0.1600
      9 N9         -3.4329    3.5456   51.0196 N.am    1  ZINC000482540246   -0.7400
     10 C10        -2.2706    3.1630   50.4547 C.2     1  ZINC000482540246    0.7100
     11 O11        -1.2546    3.1235   51.1215 O.2     1  ZINC000482540246   -0.5800
     12 N12        -2.2344    2.8243   49.1507 N.am    1  ZINC000482540246   -0.7400
     13 C13        -0.9714    2.4068   48.5371 C.3     1  ZINC000482540246    0.2100
     14 H14        -0.1428    2.6750   49.1924 H       1  ZINC000482540246    0.1200
     15 C15        -0.8029    3.1091   47.1883 C.3     1  ZINC000482540246    0.0500
     16 O16         0.4809    2.7952   46.6448 O.3     1  ZINC000482540246   -0.3000
     17 C17         0.6167    2.8786   45.2946 C.ar    1  ZINC000482540246    0.1000
     18 C18         0.4725    4.1006   44.6564 C.ar    1  ZINC000482540246   -0.1800
     19 C19         0.6116    4.1833   43.2837 C.ar    1  ZINC000482540246   -0.0900
     20 C20         0.8944    3.0491   42.5461 C.ar    1  ZINC000482540246   -0.1300
     21 C21         1.0387    1.8278   43.1788 C.ar    1  ZINC000482540246   -0.1200
     22 C22         0.9063    1.7402   44.5526 C.ar    1  ZINC000482540246    0.0700
     23 F23         1.0472    0.5473   45.1710 F       1  ZINC000482540246   -0.1300
     24 C24        -0.9836    0.9143   48.3281 C.ar    1  ZINC000482540246   -0.1000
     25 C25         0.1821    0.1861   48.4760 C.ar    1  ZINC000482540246   -0.0800
     26 C26         0.1708   -1.1828   48.2843 C.ar    1  ZINC000482540246   -0.1200
     27 C27        -1.0061   -1.8237   47.9453 C.ar    1  ZINC000482540246   -0.1200
     28 C28        -2.1719   -1.0957   47.7983 C.ar    1  ZINC000482540246   -0.1200
     29 C29        -2.1616    0.2728   47.9943 C.ar    1  ZINC000482540246   -0.1000
     30 C30        -5.2983    4.4532   54.0836 C.ar    1  ZINC000482540246   -0.2100
     31 C31        -6.5944    4.2924   54.5324 C.ar    1  ZINC000482540246    0.1500
     32 N32        -7.4349    3.4958   53.9001 N.ar    1  ZINC000482540246   -0.5400
     33 H33        -9.8831    1.2314   52.2042 H       1  ZINC000482540246    0.1000
     34 H34        -9.1839    1.5356   53.8126 H       1  ZINC000482540246    0.0600
     35 H35        -9.7296    2.8992   52.8070 H       1  ZINC000482540246    0.0600
     36 H36        -5.4907    2.3747   51.4389 H       1  ZINC000482540246    0.1500
     37 H37        -3.6887    6.0180   52.0387 H       1  ZINC000482540246    0.0600
     38 H38        -3.0513    5.6376   53.6564 H       1  ZINC000482540246    0.0700
     39 H39        -2.0043    5.4743   52.2263 H       1  ZINC000482540246    0.0700
     40 H40        -4.2431    3.5783   50.4874 H       1  ZINC000482540246    0.4000
     41 H41        -3.0447    2.8570   48.6185 H       1  ZINC000482540246    0.4000
     42 H42        -1.5802    2.7708   46.5030 H       1  ZINC000482540246    0.0800
     43 H43        -0.8850    4.1871   47.3272 H       1  ZINC000482540246    0.0800
     44 H44         0.2511    4.9877   45.2314 H       1  ZINC000482540246    0.1400
     45 H45         0.4987    5.1355   42.7866 H       1  ZINC000482540246    0.1300
     46 H46         1.0025    3.1167   41.4737 H       1  ZINC000482540246    0.1400
     47 H47         1.2592    0.9429   42.6002 H       1  ZINC000482540246    0.1400
     48 H48         1.1016    0.6869   48.7409 H       1  ZINC000482540246    0.1200
     49 H49         1.0818   -1.7516   48.3991 H       1  ZINC000482540246    0.1200
     50 H50        -1.0147   -2.8931   47.7949 H       1  ZINC000482540246    0.1200
     51 H51        -3.0914   -1.5962   47.5331 H       1  ZINC000482540246    0.1200
     52 H52        -3.0725    0.8416   47.8794 H       1  ZINC000482540246    0.1200
     53 H53        -4.6179    5.1104   54.6047 H       1  ZINC000482540246    0.1400
     54 H54        -6.9254    4.8289   55.4092 H       1  ZINC000482540246    0.1600
@<TRIPOS>BOND
     1     1     2    1
     2     1    33    1
     3     1    34    1
     4     1    35    1
     5     2     3    1
     6     3    32   ar
     7     3     4   ar
     8     4     5   ar
     9     4    36    1
    10     5     6    1
    11     5    30   ar
    12     6     7    1
    13     6     8    1
    14     6     9    1
    15     8    37    1
    16     8    38    1
    17     8    39    1
    18     9    10   am
    19     9    40    1
    20    10    11    2
    21    10    12   am
    22    12    13    1
    23    12    41    1
    24    13    14    1
    25    13    15    1
    26    13    24    1
    27    15    16    1
    28    15    42    1
    29    15    43    1
    30    16    17    1
    31    17    22   ar
    32    17    18   ar
    33    18    19   ar
    34    18    44    1
    35    19    20   ar
    36    19    45    1
    37    20    21   ar
    38    20    46    1
    39    21    22   ar
    40    21    47    1
    41    22    23    1
    42    24    29   ar
    43    24    25   ar
    44    25    26   ar
    45    25    48    1
    46    26    27   ar
    47    26    49    1
    48    27    28   ar
    49    27    50    1
    50    28    29   ar
    51    28    51    1
    52    29    52    1
    53    30    31   ar
    54    30    53    1
    55    31    32   ar
    56    31    54    1
@<TRIPOS>SUBSTRUCTURE
     1 ZINC000482540246        1 TEMP              0 ****  ****    0 ROOT


##########                                Name:    ZINC000008416770
##########                DOCK_Rotatable_Bonds:                  13
##########                         Heavy_Atoms:                  30
##########                    Molecular_Weight:             412.442
##########                DOCK_Rotatable_Bonds:                  13
##########                       Formal_Charge:          -0.0199998
##########                     HBond_Acceptors:                   8
##########                        HBond_Donors:                   2
##########                         Heavy_Atoms:                  30
##########                          Grid_Score:          -37.499355
##########                     Grid_vdw_energy:          -34.824173
##########                      Grid_es_energy:           -2.675181
##########           Internal_energy_repulsive:           17.181263

@<TRIPOS>MOLECULE
ZINC000008416770
 54 55 1 0 0
SMALL
USER_CHARGES


@<TRIPOS>ATOM
      1 C1         -5.3092    4.6491   53.8920 C.3     1  ZINC000008416770   -0.1500
      2 C2         -5.5783    3.8097   52.6415 C.3     1  ZINC000008416770    0.0600
      3 O3         -4.5593    4.0859   51.6446 O.3     1  ZINC000008416770   -0.3500
      4 C4         -4.7140    5.2015   50.9047 C.2     1  ZINC000008416770    0.5100
      5 O5         -5.7449    5.8404   50.9769 O.2     1  ZINC000008416770   -0.5100
      6 C6         -3.6319    5.6469   50.0073 C.ar    1  ZINC000008416770   -0.1500
      7 C7         -3.8858    6.6131   49.0292 C.ar    1  ZINC000008416770   -0.0400
      8 C8         -2.8733    7.0267   48.1935 C.ar    1  ZINC000008416770   -0.1400
      9 C9         -1.5982    6.4846   48.3214 C.ar    1  ZINC000008416770    0.1800
     10 N10        -0.5751    6.9059   47.4733 N.am    1  ZINC000008416770   -0.6700
     11 C11         0.1105    6.0033   46.7442 C.2     1  ZINC000008416770    0.5200
     12 O12        -0.1627    4.8245   46.8257 O.2     1  ZINC000008416770   -0.5100
     13 C13         1.2164    6.4589   45.8274 C.3     1  ZINC000008416770   -0.1300
     14 C14         0.7846    6.2658   44.3723 C.3     1  ZINC000008416770   -0.1000
     15 C15         1.1066    4.8601   43.9351 C.2     1  ZINC000008416770    0.4700
     16 O16         2.0163    4.2589   44.4556 O.2     1  ZINC000008416770   -0.5100
     17 O17         0.3829    4.2758   42.9673 O.3     1  ZINC000008416770   -0.3300
     18 C18         0.8146    2.9626   42.5229 C.3     1  ZINC000008416770    0.0500
     19 C19         0.4539    1.9358   43.5653 C.2     1  ZINC000008416770    0.5100
     20 O20         0.9803    0.8433   43.5480 O.2     1  ZINC000008416770   -0.4900
     21 N21        -0.4536    2.2317   44.5167 N.am    1  ZINC000008416770   -0.6700
     22 C22        -0.7886    1.2784   45.4846 C.ar    1  ZINC000008416770    0.1400
     23 C23        -0.0898    1.2290   46.6837 C.ar    1  ZINC000008416770   -0.1400
     24 C24        -0.4229    0.2868   47.6371 C.ar    1  ZINC000008416770   -0.1000
     25 C25        -1.4507   -0.6070   47.3985 C.ar    1  ZINC000008416770   -0.1000
     26 C26        -1.8111   -1.6340   48.4408 C.3     1  ZINC000008416770   -0.1200
     27 C27        -2.1487   -0.5601   46.2057 C.ar    1  ZINC000008416770   -0.1000
     28 C28        -1.8243    0.3833   45.2507 C.ar    1  ZINC000008416770   -0.1200
     29 C29        -1.3417    5.5231   49.2941 C.ar    1  ZINC000008416770   -0.1600
     30 C30        -2.3482    5.1082   50.1364 C.ar    1  ZINC000008416770   -0.0300
     31 H31        -4.3285    4.3965   54.2952 H       1  ZINC000008416770    0.0700
     32 H32        -5.3333    5.7073   53.6314 H       1  ZINC000008416770    0.0700
     33 H33        -6.0741    4.4418   54.6402 H       1  ZINC000008416770    0.0800
     34 H34        -5.5542    2.7516   52.9021 H       1  ZINC000008416770    0.0700
     35 H35        -6.5589    4.0623   52.2383 H       1  ZINC000008416770    0.0700
     36 H36        -4.8754    7.0340   48.9292 H       1  ZINC000008416770    0.1400
     37 H37        -3.0688    7.7728   47.4376 H       1  ZINC000008416770    0.1400
     38 H38        -0.3567    7.8488   47.4080 H       1  ZINC000008416770    0.4200
     39 H39         1.4263    7.5132   46.0072 H       1  ZINC000008416770    0.1100
     40 H40         2.1139    5.8714   46.0210 H       1  ZINC000008416770    0.1100
     41 H41        -0.2885    6.4363   44.2862 H       1  ZINC000008416770    0.1200
     42 H42         1.3171    6.9746   43.7383 H       1  ZINC000008416770    0.1200
     43 H43         0.3198    2.7162   41.5835 H       1  ZINC000008416770    0.1100
     44 H44         1.8945    2.9661   42.3746 H       1  ZINC000008416770    0.1100
     45 H45        -0.8745    3.1055   44.5306 H       1  ZINC000008416770    0.4100
     46 H46         0.7135    1.9263   46.8704 H       1  ZINC000008416770    0.1300
     47 H47         0.1201    0.2478   48.5698 H       1  ZINC000008416770    0.1300
     48 H48        -2.5676   -1.2232   49.1094 H       1  ZINC000008416770    0.0700
     49 H49        -2.2039   -2.5256   47.9518 H       1  ZINC000008416770    0.0700
     50 H50        -0.9225   -1.8963   49.0150 H       1  ZINC000008416770    0.0700
     51 H51        -2.9509   -1.2596   46.0223 H       1  ZINC000008416770    0.1300
     52 H52        -2.3699    0.4194   44.3192 H       1  ZINC000008416770    0.1300
     53 H53        -0.3508    5.1047   49.3908 H       1  ZINC000008416770    0.1400
     54 H54        -2.1485    4.3619   50.8910 H       1  ZINC000008416770    0.1400
@<TRIPOS>BOND
     1     1     2    1
     2     1    31    1
     3     1    32    1
     4     1    33    1
     5     2     3    1
     6     2    34    1
     7     2    35    1
     8     3     4    1
     9     4     5    2
    10     4     6    1
    11     6    30   ar
    12     6     7   ar
    13     7     8   ar
    14     7    36    1
    15     8     9   ar
    16     8    37    1
    17     9    10    1
    18     9    29   ar
    19    10    11   am
    20    10    38    1
    21    11    12    2
    22    11    13    1
    23    13    14    1
    24    13    39    1
    25    13    40    1
    26    14    15    1
    27    14    41    1
    28    14    42    1
    29    15    16    2
    30    15    17    1
    31    17    18    1
    32    18    19    1
    33    18    43    1
    34    18    44    1
    35    19    20    2
    36    19    21   am
    37    21    22    1
    38    21    45    1
    39    22    28   ar
    40    22    23   ar
    41    23    24   ar
    42    23    46    1
    43    24    25   ar
    44    24    47    1
    45    25    26    1
    46    25    27   ar
    47    26    48    1
    48    26    49    1
    49    26    50    1
    50    27    28   ar
    51    27    51    1
    52    28    52    1
    53    29    30   ar
    54    29    53    1
    55    30    54    1
@<TRIPOS>SUBSTRUCTURE
     1 ZINC000008416770        1 TEMP              0 ****  ****    0 ROOT


##########                                Name:    ZINC000770850676
##########                DOCK_Rotatable_Bonds:                  13
##########                         Heavy_Atoms:                  30
##########                    Molecular_Weight:             412.486
##########                DOCK_Rotatable_Bonds:                  13
##########                       Formal_Charge:          -0.0299994
##########                     HBond_Acceptors:                   7
##########                        HBond_Donors:                   3
##########                         Heavy_Atoms:                  30
##########                          Grid_Score:          -37.457249
##########                     Grid_vdw_energy:          -33.300301
##########                      Grid_es_energy:           -4.156949
##########           Internal_energy_repulsive:           17.038912

@<TRIPOS>MOLECULE
ZINC000770850676
 58 60 1 0 0
SMALL
USER_CHARGES


@<TRIPOS>ATOM
      1 O1         -1.3585    5.7543   54.4505 O.2     1  ZINC000770850676   -0.5300
      2 C2         -2.2491    5.1171   53.9292 C.2     1  ZINC000770850676    0.5100
      3 N3         -2.7950    4.0684   54.5762 N.am    1  ZINC000770850676   -0.7000
      4 C4         -2.3085    3.6943   55.9064 C.3     1  ZINC000770850676    0.1600
      5 H5         -1.6920    4.4989   56.3073 H       1  ZINC000770850676    0.1000
      6 C6         -1.4746    2.4157   55.8036 C.3     1  ZINC000770850676    0.0600
      7 O7         -0.7123    2.2465   57.0003 O.3     1  ZINC000770850676   -0.5700
      8 C8         -3.4996    3.4530   56.8359 C.3     1  ZINC000770850676   -0.1500
      9 C9         -4.4356    2.4187   56.2075 C.3     1  ZINC000770850676    0.1500
     10 H10        -4.2511    2.3664   55.1345 H       1  ZINC000770850676    0.1100
     11 O11        -4.1946    1.1387   56.7953 O.3     1  ZINC000770850676   -0.5400
     12 C12        -5.8668    2.8223   56.4521 C.ar    1  ZINC000770850676   -0.1200
     13 C13        -6.2243    3.4083   57.6520 C.ar    1  ZINC000770850676   -0.1100
     14 C14        -7.5371    3.7785   57.8763 C.ar    1  ZINC000770850676   -0.1200
     15 C15        -8.4924    3.5632   56.9007 C.ar    1  ZINC000770850676   -0.1200
     16 C16        -8.1347    2.9780   55.7004 C.ar    1  ZINC000770850676   -0.1200
     17 C17        -6.8211    2.6117   55.4744 C.ar    1  ZINC000770850676   -0.1100
     18 C18        -2.7496    5.5019   52.5608 C.3     1  ZINC000770850676    0.1400
     19 H19        -2.0457    6.1865   52.0877 H       1  ZINC000770850676    0.1000
     20 C20        -4.1349    6.1718   52.6780 C.3     1  ZINC000770850676   -0.1200
     21 C21        -4.8938    5.6193   51.4425 C.3     1  ZINC000770850676   -0.1300
     22 C22        -4.3349    4.1772   51.3537 C.3     1  ZINC000770850676    0.1000
     23 N23        -2.9117    4.2989   51.7313 N.am    1  ZINC000770850676   -0.5900
     24 C24        -1.9290    3.4479   51.3754 C.2     1  ZINC000770850676    0.6700
     25 O25        -0.7891    3.6470   51.7460 O.2     1  ZINC000770850676   -0.5600
     26 O26        -2.2105    2.3772   50.6092 O.3     1  ZINC000770850676   -0.3600
     27 C27        -1.7517    2.4133   49.2320 C.3     1  ZINC000770850676    0.1300
     28 C28        -1.4719    1.0101   48.7589 C.ar    1  ZINC000770850676   -0.1000
     29 C29        -2.5154    0.1233   48.5702 C.ar    1  ZINC000770850676   -0.0900
     30 C30        -2.2588   -1.1638   48.1363 C.ar    1  ZINC000770850676   -0.1200
     31 C31        -0.9586   -1.5640   47.8905 C.ar    1  ZINC000770850676   -0.1100
     32 C32         0.0848   -0.6770   48.0784 C.ar    1  ZINC000770850676   -0.1200
     33 C33        -0.1722    0.6115   48.5082 C.ar    1  ZINC000770850676   -0.0900
     34 H34        -3.5100    3.5611   54.1610 H       1  ZINC000770850676    0.4000
     35 H35        -2.1365    1.5600   55.6702 H       1  ZINC000770850676    0.0500
     36 H36        -0.7999    2.4895   54.9505 H       1  ZINC000770850676    0.0500
     37 H37        -1.2374    2.2933   57.8110 H       1  ZINC000770850676    0.3800
     38 H38        -3.1415    3.0826   57.7966 H       1  ZINC000770850676    0.0800
     39 H39        -4.0391    4.3881   56.9854 H       1  ZINC000770850676    0.0900
     40 H40        -3.3106    0.7868   56.6228 H       1  ZINC000770850676    0.3700
     41 H41        -5.4779    3.5766   58.4143 H       1  ZINC000770850676    0.1200
     42 H42        -7.8165    4.2357   58.8141 H       1  ZINC000770850676    0.1200
     43 H43        -9.5182    3.8517   57.0762 H       1  ZINC000770850676    0.1200
     44 H44        -8.8811    2.8095   54.9383 H       1  ZINC000770850676    0.1200
     45 H45        -6.5417    2.1545   54.5366 H       1  ZINC000770850676    0.1200
     46 H46        -4.6313    5.8724   53.6011 H       1  ZINC000770850676    0.0800
     47 H47        -4.0448    7.2567   52.6217 H       1  ZINC000770850676    0.1000
     48 H48        -5.9698    5.6112   51.6163 H       1  ZINC000770850676    0.0900
     49 H49        -4.6485    6.1892   50.5463 H       1  ZINC000770850676    0.0800
     50 H50        -4.8591    3.5236   52.0509 H       1  ZINC000770850676    0.0700
     51 H51        -4.4248    3.7976   50.3359 H       1  ZINC000770850676    0.0900
     52 H52        -2.5218    2.8617   48.6042 H       1  ZINC000770850676    0.0800
     53 H53        -0.8398    3.0069   49.1682 H       1  ZINC000770850676    0.0800
     54 H54        -3.5312    0.4361   48.7621 H       1  ZINC000770850676    0.1200
     55 H55        -3.0740   -1.8568   47.9895 H       1  ZINC000770850676    0.1300
     56 H56        -0.7581   -2.5699   47.5522 H       1  ZINC000770850676    0.1300
     57 H57         1.1006   -0.9898   47.8868 H       1  ZINC000770850676    0.1300
     58 H58         0.6430    1.3044   48.6550 H       1  ZINC000770850676    0.1200
@<TRIPOS>BOND
     1     1     2    2
     2     2     3   am
     3     2    18    1
     4     3     4    1
     5     3    34    1
     6     4     5    1
     7     4     6    1
     8     4     8    1
     9     6     7    1
    10     6    35    1
    11     6    36    1
    12     7    37    1
    13     8     9    1
    14     8    38    1
    15     8    39    1
    16     9    10    1
    17     9    11    1
    18     9    12    1
    19    11    40    1
    20    12    17   ar
    21    12    13   ar
    22    13    14   ar
    23    13    41    1
    24    14    15   ar
    25    14    42    1
    26    15    16   ar
    27    15    43    1
    28    16    17   ar
    29    16    44    1
    30    17    45    1
    31    18    19    1
    32    18    23    1
    33    18    20    1
    34    20    21    1
    35    20    46    1
    36    20    47    1
    37    21    22    1
    38    21    48    1
    39    21    49    1
    40    22    23    1
    41    22    50    1
    42    22    51    1
    43    23    24   am
    44    24    25    2
    45    24    26    1
    46    26    27    1
    47    27    28    1
    48    27    52    1
    49    27    53    1
    50    28    33   ar
    51    28    29   ar
    52    29    30   ar
    53    29    54    1
    54    30    31   ar
    55    30    55    1
    56    31    32   ar
    57    31    56    1
    58    32    33   ar
    59    32    57    1
    60    33    58    1
@<TRIPOS>SUBSTRUCTURE
     1 ZINC000770850676        1 TEMP              0 ****  ****    0 ROOT


##########                                Name:    ZINC000767361237
##########                DOCK_Rotatable_Bonds:                  10
##########                         Heavy_Atoms:                  30
##########                    Molecular_Weight:             409.439
##########                DOCK_Rotatable_Bonds:                  10
##########                       Formal_Charge:          -0.0300005
##########                     HBond_Acceptors:                   7
##########                        HBond_Donors:                   1
##########                         Heavy_Atoms:                  30
##########                          Grid_Score:          -37.301189
##########                     Grid_vdw_energy:          -36.292862
##########                      Grid_es_energy:           -1.008327
##########           Internal_energy_repulsive:            9.480183

@<TRIPOS>MOLECULE
ZINC000767361237
 53 55 1 0 0
SMALL
USER_CHARGES


@<TRIPOS>ATOM
      1 C1         -7.4998    0.5617   64.7700 C.3     1  ZINC000767361237   -0.1200
      2 C2         -8.5743    0.2063   63.7749 C.ar    1  ZINC000767361237   -0.0900
      3 C3         -9.8606    0.6822   63.9469 C.ar    1  ZINC000767361237   -0.1200
      4 C4        -10.8461    0.3562   63.0341 C.ar    1  ZINC000767361237   -0.1100
      5 C5        -10.5453   -0.4456   61.9490 C.ar    1  ZINC000767361237   -0.0800
      6 C6        -11.6198   -0.8014   60.9541 C.3     1  ZINC000767361237   -0.0800
      7 H7        -11.2700   -1.6130   60.3162 H       1  ZINC000767361237    0.0900
      8 C8        -11.9424    0.4213   60.0929 C.3     1  ZINC000767361237   -0.1500
      9 C9        -12.8791   -1.2460   61.7006 C.3     1  ZINC000767361237    0.1300
     10 H10       -13.3075   -0.3947   62.2297 H       1  ZINC000767361237    0.1400
     11 O11       -12.5402   -2.2687   62.6393 O.3     1  ZINC000767361237   -0.5200
     12 C12       -13.8846   -1.7823   60.7145 C.2     1  ZINC000767361237    0.4300
     13 O13       -15.0618   -1.5592   60.8703 O.2     1  ZINC000767361237   -0.5000
     14 O14       -13.4724   -2.5078   59.6631 O.3     1  ZINC000767361237   -0.3300
     15 C15       -14.4508   -2.7789   58.6250 C.3     1  ZINC000767361237    0.0100
     16 C16       -13.8264   -3.6423   57.5594 C.2     1  ZINC000767361237    0.3700
     17 O17       -13.7840   -4.8408   57.7014 O.2     1  ZINC000767361237   -0.4200
     18 C18       -13.2550   -3.0101   56.3165 C.3     1  ZINC000767361237   -0.1800
     19 C19       -11.7304   -3.1374   56.3344 C.3     1  ZINC000767361237    0.1200
     20 N20       -11.1545   -2.2521   55.3191 N.am    1  ZINC000767361237   -0.5800
     21 C21       -10.8136   -0.9685   55.5335 C.2     1  ZINC000767361237    0.5700
     22 O22       -10.9326   -0.3693   56.5831 O.2     1  ZINC000767361237   -0.4600
     23 C23       -10.2692   -0.4098   54.2779 C.ar    1  ZINC000767361237   -0.1400
     24 C24        -9.7709    0.8280   53.9058 C.ar    1  ZINC000767361237   -0.0400
     25 C25        -9.3271    1.0283   52.6075 C.ar    1  ZINC000767361237   -0.0900
     26 C26        -9.3786    0.0021   51.6835 C.ar    1  ZINC000767361237   -0.0900
     27 C27        -9.8748   -1.2420   52.0417 C.ar    1  ZINC000767361237   -0.0400
     28 C28       -10.3218   -1.4568   53.3352 C.ar    1  ZINC000767361237   -0.1400
     29 C29       -10.8917   -2.6174   54.0513 C.2     1  ZINC000767361237    0.5700
     30 O30       -11.0912   -3.7164   53.5746 O.2     1  ZINC000767361237   -0.4600
     31 C31        -9.2586   -0.9204   61.7761 C.ar    1  ZINC000767361237   -0.1100
     32 C32        -8.2721   -0.5912   62.6869 C.ar    1  ZINC000767361237   -0.1200
     33 H33        -7.0090    1.4845   64.4607 H       1  ZINC000767361237    0.0700
     34 H34        -7.9475    0.7006   65.7541 H       1  ZINC000767361237    0.0700
     35 H35        -6.7657   -0.2428   64.8151 H       1  ZINC000767361237    0.0700
     36 H36       -10.0956    1.3087   64.7948 H       1  ZINC000767361237    0.1200
     37 H37       -11.8513    0.7275   63.1690 H       1  ZINC000767361237    0.1200
     38 H38       -12.7196    0.1640   59.3732 H       1  ZINC000767361237    0.0800
     39 H39       -12.2923    1.2330   60.7308 H       1  ZINC000767361237    0.0700
     40 H40       -11.0452    0.7381   59.5610 H       1  ZINC000767361237    0.0600
     41 H41       -13.2865   -2.5774   63.1712 H       1  ZINC000767361237    0.3900
     42 H42       -15.3059   -3.2978   59.0583 H       1  ZINC000767361237    0.1100
     43 H43       -14.7818   -1.8390   58.1833 H       1  ZINC000767361237    0.1100
     44 H44       -13.6515   -3.5162   55.4363 H       1  ZINC000767361237    0.1100
     45 H45       -13.5313   -1.9562   56.2850 H       1  ZINC000767361237    0.1100
     46 H46       -11.3538   -2.8559   57.3177 H       1  ZINC000767361237    0.1100
     47 H47       -11.4493   -4.1683   56.1191 H       1  ZINC000767361237    0.1100
     48 H48        -9.7285    1.6337   54.6237 H       1  ZINC000767361237    0.1400
     49 H49        -8.9387    1.9930   52.3164 H       1  ZINC000767361237    0.1400
     50 H50        -9.0303    0.1704   50.6752 H       1  ZINC000767361237    0.1400
     51 H51        -9.9124   -2.0405   51.3154 H       1  ZINC000767361237    0.1400
     52 H52        -9.0235   -1.5465   60.9281 H       1  ZINC000767361237    0.1200
     53 H53        -7.2669   -0.9623   62.5519 H       1  ZINC000767361237    0.1200
@<TRIPOS>BOND
     1     1     2    1
     2     1    33    1
     3     1    34    1
     4     1    35    1
     5     2    32   ar
     6     2     3   ar
     7     3     4   ar
     8     3    36    1
     9     4     5   ar
    10     4    37    1
    11     5     6    1
    12     5    31   ar
    13     6     7    1
    14     6     8    1
    15     6     9    1
    16     8    38    1
    17     8    39    1
    18     8    40    1
    19     9    10    1
    20     9    11    1
    21     9    12    1
    22    11    41    1
    23    12    13    2
    24    12    14    1
    25    14    15    1
    26    15    16    1
    27    15    42    1
    28    15    43    1
    29    16    17    2
    30    16    18    1
    31    18    19    1
    32    18    44    1
    33    18    45    1
    34    19    20    1
    35    19    46    1
    36    19    47    1
    37    20    29   am
    38    20    21   am
    39    21    22    2
    40    21    23    1
    41    23    28   ar
    42    23    24   ar
    43    24    25   ar
    44    24    48    1
    45    25    26   ar
    46    25    49    1
    47    26    27   ar
    48    26    50    1
    49    27    28   ar
    50    27    51    1
    51    28    29    1
    52    29    30    2
    53    31    32   ar
    54    31    52    1
    55    32    53    1
@<TRIPOS>SUBSTRUCTURE
     1 ZINC000767361237        1 TEMP              0 ****  ****    0 ROOT


##########                                Name:    ZINC000004598904
##########                DOCK_Rotatable_Bonds:                  13
##########                         Heavy_Atoms:                  30
##########                    Molecular_Weight:             412.442
##########                DOCK_Rotatable_Bonds:                  13
##########                       Formal_Charge:          -0.0300005
##########                     HBond_Acceptors:                   8
##########                        HBond_Donors:                   2
##########                         Heavy_Atoms:                  30
##########                          Grid_Score:          -37.148968
##########                     Grid_vdw_energy:          -35.345623
##########                      Grid_es_energy:           -1.803345
##########           Internal_energy_repulsive:           11.698060

@<TRIPOS>MOLECULE
ZINC000004598904
 54 55 1 0 0
SMALL
USER_CHARGES


@<TRIPOS>ATOM
      1 C1         -9.9188   -1.1634   59.6208 C.3     1  ZINC000004598904   -0.1500
      2 C2        -10.1378    0.3367   59.8282 C.3     1  ZINC000004598904    0.0600
      3 O3         -9.7427    1.0537   58.6290 O.3     1  ZINC000004598904   -0.3500
      4 C4         -8.4258    1.0937   58.3461 C.2     1  ZINC000004598904    0.5100
      5 O5         -7.6193    0.6608   59.1452 O.2     1  ZINC000004598904   -0.5100
      6 C6         -7.9635    1.6629   57.0667 C.ar    1  ZINC000004598904   -0.1500
      7 C7         -6.5961    1.7309   56.7835 C.ar    1  ZINC000004598904   -0.0400
      8 C8         -6.1683    2.2630   55.5883 C.ar    1  ZINC000004598904   -0.1400
      9 C9         -7.0947    2.7329   54.6625 C.ar    1  ZINC000004598904    0.1800
     10 N10        -6.6576    3.2707   53.4529 N.am    1  ZINC000004598904   -0.6700
     11 C11        -6.2150    4.5427   53.4017 C.2     1  ZINC000004598904    0.5200
     12 O12        -6.1967    5.2193   54.4080 O.2     1  ZINC000004598904   -0.5100
     13 C13        -5.7425    5.1241   52.0941 C.3     1  ZINC000004598904   -0.1300
     14 C14        -4.2221    5.2913   52.1301 C.3     1  ZINC000004598904   -0.1300
     15 C15        -3.5958    4.4211   51.0711 C.2     1  ZINC000004598904    0.5200
     16 O16        -3.3896    4.8682   49.9628 O.2     1  ZINC000004598904   -0.5100
     17 N17        -3.2647    3.1460   51.3557 N.am    1  ZINC000004598904   -0.6700
     18 C18        -2.6853    2.3410   50.3760 C.ar    1  ZINC000004598904    0.1800
     19 C19        -1.3638    2.5533   49.9954 C.ar    1  ZINC000004598904   -0.1400
     20 C20        -0.7884    1.7604   49.0286 C.ar    1  ZINC000004598904   -0.0300
     21 C21        -1.5333    0.7405   48.4290 C.ar    1  ZINC000004598904   -0.1500
     22 C22        -0.9202   -0.1113   47.3930 C.2     1  ZINC000004598904    0.5100
     23 O23        -0.9178   -1.3193   47.5229 O.2     1  ZINC000004598904   -0.5100
     24 O24        -0.3627    0.4501   46.3022 O.3     1  ZINC000004598904   -0.3600
     25 C25        -1.2144    1.3006   45.4902 C.3     1  ZINC000004598904    0.0600
     26 C26        -2.3148    0.4548   44.8464 C.3     1  ZINC000004598904   -0.1500
     27 C27        -2.8607    0.5298   48.8140 C.ar    1  ZINC000004598904   -0.0400
     28 C28        -3.4280    1.3234   49.7851 C.ar    1  ZINC000004598904   -0.1600
     29 C29        -8.4564    2.6669   54.9411 C.ar    1  ZINC000004598904   -0.1600
     30 C30        -8.8918    2.1308   56.1318 C.ar    1  ZINC000004598904   -0.0300
     31 H31        -8.8650   -1.3517   59.4154 H       1  ZINC000004598904    0.0700
     32 H32       -10.2154   -1.7017   60.5211 H       1  ZINC000004598904    0.0800
     33 H33       -10.5199   -1.5053   58.7784 H       1  ZINC000004598904    0.0700
     34 H34       -11.1916    0.5250   60.0336 H       1  ZINC000004598904    0.0700
     35 H35        -9.5366    0.6786   60.6707 H       1  ZINC000004598904    0.0700
     36 H36        -5.8765    1.3667   57.5017 H       1  ZINC000004598904    0.1400
     37 H37        -5.1121    2.3161   55.3690 H       1  ZINC000004598904    0.1400
     38 H38        -6.6723    2.7295   52.6480 H       1  ZINC000004598904    0.4200
     39 H39        -6.0151    4.4539   51.2789 H       1  ZINC000004598904    0.1100
     40 H40        -6.2113    6.0957   51.9380 H       1  ZINC000004598904    0.1100
     41 H41        -3.9668    6.3340   51.9412 H       1  ZINC000004598904    0.1100
     42 H42        -3.8473    4.9973   53.1104 H       1  ZINC000004598904    0.1100
     43 H43        -3.4297    2.7884   52.2422 H       1  ZINC000004598904    0.4200
     44 H44        -0.7889    3.3413   50.4592 H       1  ZINC000004598904    0.1400
     45 H45         0.2371    1.9261   48.7332 H       1  ZINC000004598904    0.1400
     46 H46        -1.6667    2.0679   46.1186 H       1  ZINC000004598904    0.0700
     47 H47        -0.6176    1.7745   44.7110 H       1  ZINC000004598904    0.0700
     48 H48        -2.9542    1.0933   44.2369 H       1  ZINC000004598904    0.0800
     49 H49        -1.8625   -0.3125   44.2180 H       1  ZINC000004598904    0.0700
     50 H50        -2.9117   -0.0192   45.6257 H       1  ZINC000004598904    0.0700
     51 H51        -3.4391   -0.2569   48.3527 H       1  ZINC000004598904    0.1400
     52 H52        -4.4533    1.1610   50.0835 H       1  ZINC000004598904    0.1400
     53 H53        -9.1727    3.0326   54.2203 H       1  ZINC000004598904    0.1400
     54 H54        -9.9488    2.0799   56.3474 H       1  ZINC000004598904    0.1400
@<TRIPOS>BOND
     1     1     2    1
     2     1    31    1
     3     1    32    1
     4     1    33    1
     5     2     3    1
     6     2    34    1
     7     2    35    1
     8     3     4    1
     9     4     5    2
    10     4     6    1
    11     6    30   ar
    12     6     7   ar
    13     7     8   ar
    14     7    36    1
    15     8     9   ar
    16     8    37    1
    17     9    10    1
    18     9    29   ar
    19    10    11   am
    20    10    38    1
    21    11    12    2
    22    11    13    1
    23    13    14    1
    24    13    39    1
    25    13    40    1
    26    14    15    1
    27    14    41    1
    28    14    42    1
    29    15    16    2
    30    15    17   am
    31    17    18    1
    32    17    43    1
    33    18    28   ar
    34    18    19   ar
    35    19    20   ar
    36    19    44    1
    37    20    21   ar
    38    20    45    1
    39    21    22    1
    40    21    27   ar
    41    22    23    2
    42    22    24    1
    43    24    25    1
    44    25    26    1
    45    25    46    1
    46    25    47    1
    47    26    48    1
    48    26    49    1
    49    26    50    1
    50    27    28   ar
    51    27    51    1
    52    28    52    1
    53    29    30   ar
    54    29    53    1
    55    30    54    1
@<TRIPOS>SUBSTRUCTURE
     1 ZINC000004598904        1 TEMP              0 ****  ****    0 ROOT


##########                                Name:    ZINC001461256440
##########                DOCK_Rotatable_Bonds:                  13
##########                         Heavy_Atoms:                  26
##########                    Molecular_Weight:             367.445
##########                DOCK_Rotatable_Bonds:                  13
##########                       Formal_Charge:        -6.37025e-07
##########                     HBond_Acceptors:                   8
##########                        HBond_Donors:                   1
##########                         Heavy_Atoms:                  26
##########                          Grid_Score:          -37.116798
##########                     Grid_vdw_energy:          -35.640793
##########                      Grid_es_energy:           -1.476007
##########           Internal_energy_repulsive:           38.421627

@<TRIPOS>MOLECULE
ZINC001461256440
 55 55 1 0 0
SMALL
USER_CHARGES


@<TRIPOS>ATOM
      1 C1         -0.9254    0.9370   44.6575 C.3     1  ZINC001461256440   -0.1500
      2 C2         -2.2994    0.2672   44.7254 C.3     1  ZINC001461256440    0.0600
      3 O3         -2.9118    0.5483   46.0116 O.3     1  ZINC001461256440   -0.3600
      4 C4         -2.5444   -0.2270   47.0439 C.2     1  ZINC001461256440    0.4400
      5 O5         -2.2759   -1.3905   46.8600 O.2     1  ZINC001461256440   -0.4800
      6 C6         -2.4670    0.3538   48.4323 C.3     1  ZINC001461256440    0.1400
      7 N7         -1.2053    1.0821   48.5874 N.pl3   1  ZINC001461256440   -0.3800
      8 N8          0.0743    0.5808   48.3169 N.2     1  ZINC001461256440   -0.2800
      9 C9          0.9481    1.5203   48.5739 C.2     1  ZINC001461256440    0.1000
     10 C10         2.4424    1.4020   48.4181 C.3     1  ZINC001461256440   -0.0700
     11 C11         0.2587    2.6524   49.0167 C.2     1  ZINC001461256440   -0.2700
     12 C12        -1.0704    2.3594   49.0115 C.2     1  ZINC001461256440    0.3100
     13 N13        -2.1049    3.2176   49.3840 N.am    1  ZINC001461256440   -0.6500
     14 C14        -2.3234    3.4842   50.6869 C.2     1  ZINC001461256440    0.5200
     15 O15        -1.6194    2.9788   51.5356 O.2     1  ZINC001461256440   -0.5000
     16 C16        -3.4422    4.4099   51.0894 C.3     1  ZINC001461256440   -0.1300
     17 C17        -4.5360    3.6096   51.7992 C.3     1  ZINC001461256440   -0.1100
     18 C18        -5.7259    4.5244   52.0963 C.3     1  ZINC001461256440   -0.1100
     19 C19        -6.8841    3.6914   52.6492 C.3     1  ZINC001461256440   -0.1200
     20 C20        -6.8851    3.7691   54.1542 C.2     1  ZINC001461256440    0.4600
     21 O21        -7.9142    3.6095   54.7667 O.2     1  ZINC001461256440   -0.5000
     22 O22        -5.7425    4.0156   54.8142 O.3     1  ZINC001461256440   -0.3500
     23 C23        -5.8225    4.1009   56.2615 C.3     1  ZINC001461256440    0.1200
     24 C24        -6.3541    2.7801   56.8216 C.3     1  ZINC001461256440   -0.1800
     25 C25        -4.4303    4.3741   56.8341 C.3     1  ZINC001461256440   -0.1400
     26 C26        -6.7675    5.2384   56.6539 C.3     1  ZINC001461256440   -0.1800
     27 H27        -0.4657    0.7260   43.6919 H       1  ZINC001461256440    0.0800
     28 H28        -1.0401    2.0142   44.7777 H       1  ZINC001461256440    0.0700
     29 H29        -0.2917    0.5479   45.4544 H       1  ZINC001461256440    0.0700
     30 H30        -2.9331    0.6563   43.9285 H       1  ZINC001461256440    0.0700
     31 H31        -2.1848   -0.8101   44.6053 H       1  ZINC001461256440    0.0700
     32 H32        -3.3022    1.0368   48.5875 H       1  ZINC001461256440    0.1300
     33 H33        -2.5145   -0.4508   49.1660 H       1  ZINC001461256440    0.1400
     34 H34         2.7281    1.7074   47.4115 H       1  ZINC001461256440    0.0800
     35 H35         2.9357    2.0453   49.1467 H       1  ZINC001461256440    0.0800
     36 H36         2.7442    0.3677   48.5834 H       1  ZINC001461256440    0.0700
     37 H37         0.7015    3.5935   49.3078 H       1  ZINC001461256440    0.1800
     38 H38        -2.6671    3.6227   48.7051 H       1  ZINC001461256440    0.4100
     39 H39        -3.0562    5.1748   51.7634 H       1  ZINC001461256440    0.1000
     40 H40        -3.8580    4.8851   50.2009 H       1  ZINC001461256440    0.1000
     41 H41        -4.8595    2.7892   51.1586 H       1  ZINC001461256440    0.0800
     42 H42        -4.1441    3.2082   52.7337 H       1  ZINC001461256440    0.0800
     43 H43        -5.4334    5.2735   52.8321 H       1  ZINC001461256440    0.0700
     44 H44        -6.0410    5.0205   51.1783 H       1  ZINC001461256440    0.0700
     45 H45        -7.8271    4.0799   52.2647 H       1  ZINC001461256440    0.1100
     46 H46        -6.7654    2.6532   52.3391 H       1  ZINC001461256440    0.1100
     47 H47        -5.6809    1.9697   56.5420 H       1  ZINC001461256440    0.0600
     48 H48        -6.4142    2.8441   57.9081 H       1  ZINC001461256440    0.0700
     49 H49        -7.3460    2.5854   56.4137 H       1  ZINC001461256440    0.0800
     50 H50        -4.0515    5.3151   56.4350 H       1  ZINC001461256440    0.0700
     51 H51        -4.4903    4.4381   57.9205 H       1  ZINC001461256440    0.0800
     52 H52        -3.7570    3.5637   56.5545 H       1  ZINC001461256440    0.0700
     53 H53        -7.7594    5.0437   56.2460 H       1  ZINC001461256440    0.0800
     54 H54        -6.8276    5.3024   57.7403 H       1  ZINC001461256440    0.0700
     55 H55        -6.3888    6.1794   56.2549 H       1  ZINC001461256440    0.0600
@<TRIPOS>BOND
     1     1     2    1
     2     1    27    1
     3     1    28    1
     4     1    29    1
     5     2     3    1
     6     2    30    1
     7     2    31    1
     8     3     4    1
     9     4     5    2
    10     4     6    1
    11     6     7    1
    12     6    32    1
    13     6    33    1
    14     7    12    1
    15     7     8    1
    16     8     9    2
    17     9    10    1
    18     9    11    1
    19    10    34    1
    20    10    35    1
    21    10    36    1
    22    11    12    2
    23    11    37    1
    24    12    13    1
    25    13    14   am
    26    13    38    1
    27    14    15    2
    28    14    16    1
    29    16    17    1
    30    16    39    1
    31    16    40    1
    32    17    18    1
    33    17    41    1
    34    17    42    1
    35    18    19    1
    36    18    43    1
    37    18    44    1
    38    19    20    1
    39    19    45    1
    40    19    46    1
    41    20    21    2
    42    20    22    1
    43    22    23    1
    44    23    24    1
    45    23    25    1
    46    23    26    1
    47    24    47    1
    48    24    48    1
    49    24    49    1
    50    25    50    1
    51    25    51    1
    52    25    52    1
    53    26    53    1
    54    26    54    1
    55    26    55    1
@<TRIPOS>SUBSTRUCTURE
     1 ZINC001461256440        1 TEMP              0 ****  ****    0 ROOT


##########                                Name:    ZINC000482846390
##########                DOCK_Rotatable_Bonds:                   9
##########                         Heavy_Atoms:                  30
##########                    Molecular_Weight:             420.469
##########                DOCK_Rotatable_Bonds:                   9
##########                       Formal_Charge:          -0.0100011
##########                     HBond_Acceptors:                  11
##########                        HBond_Donors:                   2
##########                         Heavy_Atoms:                  30
##########                          Grid_Score:          -36.825878
##########                     Grid_vdw_energy:          -35.194225
##########                      Grid_es_energy:           -1.631653
##########           Internal_energy_repulsive:           22.630522

@<TRIPOS>MOLECULE
ZINC000482846390
 58 60 1 0 0
SMALL
USER_CHARGES


@<TRIPOS>ATOM
      1 C1         -6.5446    2.7889   54.9789 C.3     1  ZINC000482846390   -0.1000
      2 C2         -7.5283    2.1703   54.0194 C.2     1  ZINC000482846390    0.0900
      3 C3         -8.7882    1.7740   54.3136 C.2     1  ZINC000482846390   -0.2700
      4 C4         -9.3602    1.2566   53.1469 C.2     1  ZINC000482846390    0.0700
      5 C5        -10.7550    0.7008   53.0179 C.3     1  ZINC000482846390   -0.0500
      6 C6        -10.7003   -0.8278   53.0530 C.3     1  ZINC000482846390    0.1500
      7 H7         -9.7125   -1.1485   53.3841 H       1  ZINC000482846390    0.1000
      8 C8        -10.9729   -1.3802   51.6525 C.3     1  ZINC000482846390   -0.1700
      9 N9        -11.7144   -1.3316   53.9826 N.am    1  ZINC000482846390   -0.6800
     10 C10       -11.5281   -2.5104   54.6089 C.2     1  ZINC000482846390    0.5100
     11 O11       -10.5199   -3.1537   54.4040 O.2     1  ZINC000482846390   -0.5200
     12 C12       -12.5634   -3.0251   55.5559 C.2     1  ZINC000482846390    0.5100
     13 O13       -13.2156   -4.0069   55.2669 O.2     1  ZINC000482846390   -0.5100
     14 N14       -12.7727   -2.3991   56.7309 N.am    1  ZINC000482846390   -0.5900
     15 C15       -13.7832   -2.8978   57.6745 C.3     1  ZINC000482846390    0.0500
     16 C16       -13.1088   -3.1441   59.0297 C.3     1  ZINC000482846390    0.1000
     17 N17       -12.3305   -1.9510   59.3907 N.am    1  ZINC000482846390   -0.6000
     18 C18       -12.5392   -1.3255   60.5662 C.2     1  ZINC000482846390    0.5200
     19 O19       -13.3760   -1.7467   61.3374 O.2     1  ZINC000482846390   -0.5000
     20 C20       -11.7400   -0.1131   60.9199 C.2     1  ZINC000482846390    0.5200
     21 O21       -12.1995    0.9936   60.7283 O.2     1  ZINC000482846390   -0.5000
     22 N22       -10.5090   -0.2489   61.4515 N.am    1  ZINC000482846390   -0.6000
     23 C23        -9.9284   -1.5803   61.6873 C.3     1  ZINC000482846390    0.0700
     24 C24        -8.5255   -1.6121   61.0703 C.3     1  ZINC000482846390    0.0500
     25 O25        -7.7732   -0.4967   61.5539 O.3     1  ZINC000482846390   -0.3700
     26 C26        -8.3136    0.7758   61.1899 C.3     1  ZINC000482846390    0.0500
     27 C27        -9.7035    0.9298   61.8077 C.3     1  ZINC000482846390    0.0700
     28 C28       -11.3200   -1.4522   58.4472 C.3     1  ZINC000482846390    0.0900
     29 C29       -11.9905   -1.2092   57.0944 C.3     1  ZINC000482846390    0.0900
     30 N30        -8.4755    1.3391   52.1866 N.2     1  ZINC000482846390   -0.2800
     31 N31        -7.3126    1.9176   52.7114 N.pl3   1  ZINC000482846390   -0.4700
     32 H32        -6.6616    3.8726   54.9708 H       1  ZINC000482846390    0.0800
     33 H33        -6.7306    2.4108   55.9841 H       1  ZINC000482846390    0.0900
     34 H34        -5.5299    2.5308   54.6756 H       1  ZINC000482846390    0.0700
     35 H35        -9.2673    1.8446   55.2790 H       1  ZINC000482846390    0.1500
     36 H36       -11.3677    1.0615   53.8442 H       1  ZINC000482846390    0.0900
     37 H37       -11.1903    1.0272   52.0734 H       1  ZINC000482846390    0.1100
     38 H38       -10.2184   -1.0055   50.9609 H       1  ZINC000482846390    0.0700
     39 H39       -10.9339   -2.4692   51.6776 H       1  ZINC000482846390    0.0700
     40 H40       -11.9607   -1.0596   51.3214 H       1  ZINC000482846390    0.0600
     41 H41       -12.5198   -0.8168   54.1474 H       1  ZINC000482846390    0.4200
     42 H42       -14.5742   -2.1567   57.7888 H       1  ZINC000482846390    0.0800
     43 H43       -14.2041   -3.8310   57.3003 H       1  ZINC000482846390    0.1600
     44 H44       -13.8693   -3.3281   59.7887 H       1  ZINC000482846390    0.1100
     45 H45       -12.4452   -4.0057   58.9569 H       1  ZINC000482846390    0.0800
     46 H46        -9.8624   -1.7675   62.7590 H       1  ZINC000482846390    0.0900
     47 H47       -10.5527   -2.3413   61.2190 H       1  ZINC000482846390    0.0900
     48 H48        -8.0248   -2.5384   61.3518 H       1  ZINC000482846390    0.1100
     49 H49        -8.6037   -1.5552   59.9846 H       1  ZINC000482846390    0.0600
     50 H50        -7.6606    1.5673   61.5574 H       1  ZINC000482846390    0.1100
     51 H51        -8.3912    0.8414   60.1046 H       1  ZINC000482846390    0.0600
     52 H52       -10.1789    1.8316   61.4217 H       1  ZINC000482846390    0.1100
     53 H53        -9.6178    0.9950   62.8924 H       1  ZINC000482846390    0.0800
     54 H54       -10.8991   -0.5190   58.8214 H       1  ZINC000482846390    0.0900
     55 H55       -10.5289   -2.1934   58.3330 H       1  ZINC000482846390    0.0900
     56 H56       -11.2289   -1.0253   56.3365 H       1  ZINC000482846390    0.1100
     57 H57       -12.6553   -0.3484   57.1649 H       1  ZINC000482846390    0.0800
     58 H58        -6.4946    2.0989   52.2225 H       1  ZINC000482846390    0.4400
@<TRIPOS>BOND
     1     1     2    1
     2     1    32    1
     3     1    33    1
     4     1    34    1
     5     2    31    1
     6     2     3    2
     7     3     4    1
     8     3    35    1
     9     4     5    1
    10     4    30    2
    11     5     6    1
    12     5    36    1
    13     5    37    1
    14     6     7    1
    15     6     8    1
    16     6     9    1
    17     8    38    1
    18     8    39    1
    19     8    40    1
    20     9    10   am
    21     9    41    1
    22    10    11    2
    23    10    12    1
    24    12    13    2
    25    12    14   am
    26    14    29    1
    27    14    15    1
    28    15    16    1
    29    15    42    1
    30    15    43    1
    31    16    17    1
    32    16    44    1
    33    16    45    1
    34    17    18   am
    35    17    28    1
    36    18    19    2
    37    18    20    1
    38    20    21    2
    39    20    22   am
    40    22    27    1
    41    22    23    1
    42    23    24    1
    43    23    46    1
    44    23    47    1
    45    24    25    1
    46    24    48    1
    47    24    49    1
    48    25    26    1
    49    26    27    1
    50    26    50    1
    51    26    51    1
    52    27    52    1
    53    27    53    1
    54    28    29    1
    55    28    54    1
    56    28    55    1
    57    29    56    1
    58    29    57    1
    59    30    31    1
    60    31    58    1
@<TRIPOS>SUBSTRUCTURE
     1 ZINC000482846390        1 TEMP              0 ****  ****    0 ROOT


##########                                Name:    ZINC000062291520
##########                DOCK_Rotatable_Bonds:                  10
##########                         Heavy_Atoms:                  29
##########                    Molecular_Weight:             398.502
##########                DOCK_Rotatable_Bonds:                  10
##########                       Formal_Charge:          -0.0100006
##########                     HBond_Acceptors:                   6
##########                        HBond_Donors:                   1
##########                         Heavy_Atoms:                  29
##########                          Grid_Score:          -36.740597
##########                     Grid_vdw_energy:          -35.279209
##########                      Grid_es_energy:           -1.461389
##########           Internal_energy_repulsive:           15.905568

@<TRIPOS>MOLECULE
ZINC000062291520
 59 61 1 0 0
SMALL
USER_CHARGES


@<TRIPOS>ATOM
      1 C1         -8.3384    1.7651   54.0230 C.3     1  ZINC000062291520    0.0300
      2 O2         -7.0266    2.2431   54.3281 O.3     1  ZINC000062291520   -0.3100
      3 C3         -6.8035    2.6631   55.6021 C.ar    1  ZINC000062291520    0.1000
      4 C4         -7.8245    2.6174   56.5371 C.ar    1  ZINC000062291520   -0.1700
      5 C5         -7.5974    3.0503   57.8307 C.ar    1  ZINC000062291520   -0.1200
      6 C6         -6.3512    3.5237   58.1955 C.ar    1  ZINC000062291520   -0.1200
      7 C7         -5.3259    3.5662   57.2686 C.ar    1  ZINC000062291520   -0.1700
      8 C8         -5.5467    3.1342   55.9711 C.ar    1  ZINC000062291520    0.1000
      9 O9         -4.5393    3.1752   55.0584 O.3     1  ZINC000062291520   -0.3100
     10 C10        -3.2908    3.7170   55.4941 C.3     1  ZINC000062291520    0.0700
     11 C11        -2.2815    3.6601   54.3456 C.3     1  ZINC000062291520   -0.1400
     12 C12        -2.7806    4.4974   53.1963 C.2     1  ZINC000062291520    0.5200
     13 O13        -2.6547    5.7033   53.2251 O.2     1  ZINC000062291520   -0.5400
     14 N14        -3.3669    3.9061   52.1366 N.am    1  ZINC000062291520   -0.7200
     15 C15        -3.8504    4.7199   51.0185 C.3     1  ZINC000062291520    0.1600
     16 C16        -2.7919    4.7819   49.9476 C.ar    1  ZINC000062291520   -0.1100
     17 C17        -2.5348    5.9746   49.2982 C.ar    1  ZINC000062291520   -0.1000
     18 C18        -1.5633    6.0315   48.3161 C.ar    1  ZINC000062291520   -0.1200
     19 C19        -0.8493    4.8958   47.9836 C.ar    1  ZINC000062291520   -0.0900
     20 C20        -1.1068    3.7026   48.6329 C.ar    1  ZINC000062291520   -0.0800
     21 C21        -0.3285    2.4642   48.2702 C.3     1  ZINC000062291520    0.0900
     22 N22        -1.2609    1.3885   47.9076 N.3     1  ZINC000062291520   -0.5300
     23 C23        -1.5331    1.3921   46.4628 C.3     1  ZINC000062291520    0.0100
     24 C24        -2.5523    0.2966   46.1384 C.3     1  ZINC000062291520    0.0600
     25 O25        -2.0506   -0.9635   46.5917 O.3     1  ZINC000062291520   -0.3800
     26 C26        -1.7751   -1.0027   47.9945 C.3     1  ZINC000062291520    0.0900
     27 H27        -2.6947   -0.8224   48.5512 H       1  ZINC000062291520    0.0700
     28 C28        -1.2136   -2.3764   48.3667 C.3     1  ZINC000062291520   -0.1500
     29 C29        -0.7481    0.0796   48.3378 C.3     1  ZINC000062291520    0.0200
     30 C30        -2.0740    3.6470   49.6188 C.ar    1  ZINC000062291520   -0.0900
     31 H31        -8.5704    0.9102   54.6583 H       1  ZINC000062291520    0.0500
     32 H32        -9.0647    2.5581   54.2015 H       1  ZINC000062291520    0.0600
     33 H33        -8.3806    1.4624   52.9768 H       1  ZINC000062291520    0.1000
     34 H34        -8.7992    2.2479   56.2547 H       1  ZINC000062291520    0.1400
     35 H35        -8.3955    3.0180   58.5576 H       1  ZINC000062291520    0.1300
     36 H36        -6.1777    3.8609   59.2067 H       1  ZINC000062291520    0.1300
     37 H37        -4.3527    3.9360   57.5563 H       1  ZINC000062291520    0.1400
     38 H38        -2.9163    3.1350   56.3361 H       1  ZINC000062291520    0.0700
     39 H39        -3.4321    4.7529   55.8026 H       1  ZINC000062291520    0.0700
     40 H40        -2.1621    2.6274   54.0179 H       1  ZINC000062291520    0.1100
     41 H41        -1.3210    4.0465   54.6865 H       1  ZINC000062291520    0.1100
     42 H42        -3.4687    2.9417   52.1141 H       1  ZINC000062291520    0.4000
     43 H43        -4.7561    4.2728   50.6086 H       1  ZINC000062291520    0.0800
     44 H44        -4.0702    5.7277   51.3709 H       1  ZINC000062291520    0.0800
     45 H45        -3.0925    6.8621   49.5583 H       1  ZINC000062291520    0.1200
     46 H46        -1.3622    6.9636   47.8090 H       1  ZINC000062291520    0.1300
     47 H47        -0.0905    4.9403   47.2165 H       1  ZINC000062291520    0.1200
     48 H48         0.3240    2.6801   47.4242 H       1  ZINC000062291520    0.0500
     49 H49         0.2738    2.1509   49.1229 H       1  ZINC000062291520    0.0900
     50 H50        -1.9359    2.3620   46.1708 H       1  ZINC000062291520    0.0900
     51 H51        -0.6085    1.2029   45.9177 H       1  ZINC000062291520    0.0400
     52 H52        -3.4944    0.5155   46.6411 H       1  ZINC000062291520    0.0600
     53 H53        -2.7143    0.2577   45.0612 H       1  ZINC000062291520    0.1000
     54 H54        -0.2932   -2.5554   47.8109 H       1  ZINC000062291520    0.0600
     55 H55        -1.0038   -2.4056   49.4359 H       1  ZINC000062291520    0.0700
     56 H56        -1.9436   -3.1468   48.1185 H       1  ZINC000062291520    0.0700
     57 H57         0.1891   -0.1315   47.8226 H       1  ZINC000062291520    0.0400
     58 H58        -0.5778    0.0914   49.4143 H       1  ZINC000062291520    0.0900
     59 H59        -2.2718    2.7161   50.1292 H       1  ZINC000062291520    0.1200
@<TRIPOS>BOND
     1     1     2    1
     2     1    31    1
     3     1    32    1
     4     1    33    1
     5     2     3    1
     6     3     8   ar
     7     3     4   ar
     8     4     5   ar
     9     4    34    1
    10     5     6   ar
    11     5    35    1
    12     6     7   ar
    13     6    36    1
    14     7     8   ar
    15     7    37    1
    16     8     9    1
    17     9    10    1
    18    10    11    1
    19    10    38    1
    20    10    39    1
    21    11    12    1
    22    11    40    1
    23    11    41    1
    24    12    13    2
    25    12    14   am
    26    14    15    1
    27    14    42    1
    28    15    16    1
    29    15    43    1
    30    15    44    1
    31    16    30   ar
    32    16    17   ar
    33    17    18   ar
    34    17    45    1
    35    18    19   ar
    36    18    46    1
    37    19    20   ar
    38    19    47    1
    39    20    21    1
    40    20    30   ar
    41    21    22    1
    42    21    48    1
    43    21    49    1
    44    22    29    1
    45    22    23    1
    46    23    24    1
    47    23    50    1
    48    23    51    1
    49    24    25    1
    50    24    52    1
    51    24    53    1
    52    25    26    1
    53    26    27    1
    54    26    28    1
    55    26    29    1
    56    28    54    1
    57    28    55    1
    58    28    56    1
    59    29    57    1
    60    29    58    1
    61    30    59    1
@<TRIPOS>SUBSTRUCTURE
     1 ZINC000062291520        1 TEMP              0 ****  ****    0 ROOT


##########                                Name:    ZINC000114394234
##########                DOCK_Rotatable_Bonds:                   9
##########                         Heavy_Atoms:                  27
##########                    Molecular_Weight:             365.392
##########                DOCK_Rotatable_Bonds:                   9
##########                       Formal_Charge:           0.0300002
##########                     HBond_Acceptors:                   8
##########                        HBond_Donors:                   3
##########                         Heavy_Atoms:                  27
##########                          Grid_Score:          -36.586948
##########                     Grid_vdw_energy:          -32.382446
##########                      Grid_es_energy:           -4.204501
##########           Internal_energy_repulsive:           16.859211

@<TRIPOS>MOLECULE
ZINC000114394234
 46 48 1 0 0
SMALL
USER_CHARGES


@<TRIPOS>ATOM
      1 C1         -4.4984    4.5245   52.6845 C.3     1  ZINC000114394234   -0.1600
      2 C2         -3.0297    4.3099   53.0557 C.3     1  ZINC000114394234    0.1300
      3 H3         -2.5950    5.2555   53.3801 H       1  ZINC000114394234    0.1200
      4 N4         -2.9387    3.3322   54.1430 N.am    1  ZINC000114394234   -0.7100
      5 C5         -2.1990    3.6065   55.2357 C.2     1  ZINC000114394234    0.5200
      6 O6         -1.6074    4.6621   55.3183 O.2     1  ZINC000114394234   -0.5100
      7 C7         -2.1068    2.6016   56.3549 C.3     1  ZINC000114394234    0.0400
      8 O8         -3.3158    1.8420   56.4139 O.3     1  ZINC000114394234   -0.2900
      9 C9         -4.4339    2.4931   56.8298 C.ar    1  ZINC000114394234    0.1300
     10 C10        -4.3317    3.7518   57.4042 C.ar    1  ZINC000114394234   -0.2100
     11 C11        -5.4699    4.4118   57.8257 C.ar    1  ZINC000114394234   -0.0800
     12 C12        -6.7098    3.8188   57.6758 C.ar    1  ZINC000114394234   -0.1600
     13 C13        -6.8142    2.5642   57.1041 C.ar    1  ZINC000114394234   -0.0800
     14 C14        -5.6797    1.9027   56.6753 C.ar    1  ZINC000114394234   -0.1500
     15 C15        -2.2778    3.7972   51.8546 C.2     1  ZINC000114394234    0.5100
     16 O16        -1.1201    3.4527   51.9656 O.2     1  ZINC000114394234   -0.5100
     17 N17        -2.8915    3.7213   50.6572 N.am    1  ZINC000114394234   -0.6700
     18 C18        -2.1932    3.2452   49.5419 C.ar    1  ZINC000114394234    0.1300
     19 C19        -1.3530    4.0950   48.8334 C.ar    1  ZINC000114394234   -0.1200
     20 C20        -0.6616    3.6282   47.7313 C.ar    1  ZINC000114394234   -0.1000
     21 C21        -0.8023    2.3155   47.3283 C.ar    1  ZINC000114394234   -0.0900
     22 C22        -1.6436    1.4560   48.0329 C.ar    1  ZINC000114394234    0.0000
     23 C23        -1.7964    0.0445   47.6006 C.2     1  ZINC000114394234    0.2700
     24 N24        -2.4166   -0.3616   46.5145 N.2     1  ZINC000114394234   -0.3000
     25 N25        -2.3225   -1.7626   46.4956 N.pl3   1  ZINC000114394234   -0.4800
     26 C26        -1.6358   -2.1146   47.5975 C.2     1  ZINC000114394234    0.2700
     27 N27        -1.3204   -1.0268   48.2492 N.2     1  ZINC000114394234   -0.5300
     28 C28        -2.3351    1.9233   49.1469 C.ar    1  ZINC000114394234   -0.0800
     29 H29        -4.9331    3.5791   52.3602 H       1  ZINC000114394234    0.0700
     30 H30        -5.0423    4.8955   53.5533 H       1  ZINC000114394234    0.0800
     31 H31        -4.5661    5.2520   51.8756 H       1  ZINC000114394234    0.0800
     32 H32        -3.4108    2.4875   54.0763 H       1  ZINC000114394234    0.4100
     33 H33        -1.2657    1.9324   56.1740 H       1  ZINC000114394234    0.1000
     34 H34        -1.9590    3.1233   57.3005 H       1  ZINC000114394234    0.1000
     35 H35        -3.3633    4.2152   57.5222 H       1  ZINC000114394234    0.1300
     36 H36        -5.3908    5.3917   58.2729 H       1  ZINC000114394234    0.1300
     37 H37        -7.5984    4.3362   58.0062 H       1  ZINC000114394234    0.1300
     38 H38        -7.7838    2.1030   56.9884 H       1  ZINC000114394234    0.1300
     39 H39        -5.7618    0.9227   56.2288 H       1  ZINC000114394234    0.1300
     40 H40        -3.8174    3.9967   50.5685 H       1  ZINC000114394234    0.4200
     41 H41        -1.2400    5.1230   49.1443 H       1  ZINC000114394234    0.1300
     42 H42        -0.0096    4.2926   47.1837 H       1  ZINC000114394234    0.1400
     43 H43        -0.2609    1.9543   46.4664 H       1  ZINC000114394234    0.1400
     44 H44        -2.6823   -2.3593   45.8207 H       1  ZINC000114394234    0.4400
     45 H45        -1.3842   -3.1232   47.8908 H       1  ZINC000114394234    0.2300
     46 H46        -2.9880    1.2612   49.6961 H       1  ZINC000114394234    0.1500
@<TRIPOS>BOND
     1     1     2    1
     2     1    29    1
     3     1    30    1
     4     1    31    1
     5     2     3    1
     6     2     4    1
     7     2    15    1
     8     4     5   am
     9     4    32    1
    10     5     6    2
    11     5     7    1
    12     7     8    1
    13     7    33    1
    14     7    34    1
    15     8     9    1
    16     9    14   ar
    17     9    10   ar
    18    10    11   ar
    19    10    35    1
    20    11    12   ar
    21    11    36    1
    22    12    13   ar
    23    12    37    1
    24    13    14   ar
    25    13    38    1
    26    14    39    1
    27    15    16    2
    28    15    17   am
    29    17    18    1
    30    17    40    1
    31    18    28   ar
    32    18    19   ar
    33    19    20   ar
    34    19    41    1
    35    20    21   ar
    36    20    42    1
    37    21    22   ar
    38    21    43    1
    39    22    23    1
    40    22    28   ar
    41    23    27    1
    42    23    24    2
    43    24    25    1
    44    25    26    1
    45    25    44    1
    46    26    27    2
    47    26    45    1
    48    28    46    1
@<TRIPOS>SUBSTRUCTURE
     1 ZINC000114394234        1 TEMP              0 ****  ****    0 ROOT


##########                                Name:    ZINC000046390957
##########                DOCK_Rotatable_Bonds:                   9
##########                         Heavy_Atoms:                  29
##########                    Molecular_Weight:             408.521
##########                DOCK_Rotatable_Bonds:                   9
##########                       Formal_Charge:           0.0100005
##########                     HBond_Acceptors:                   6
##########                        HBond_Donors:                   1
##########                         Heavy_Atoms:                  29
##########                          Grid_Score:          -36.545902
##########                     Grid_vdw_energy:          -34.760059
##########                      Grid_es_energy:           -1.785842
##########           Internal_energy_repulsive:           14.720854

@<TRIPOS>MOLECULE
ZINC000046390957
 53 55 1 0 0
SMALL
USER_CHARGES


@<TRIPOS>ATOM
      1 C1         -2.2303    0.8942   45.6068 C.3     1  ZINC000046390957   -0.1100
      2 C2         -1.2461    0.1449   46.4675 C.ar    1  ZINC000046390957   -0.0600
      3 C3         -1.6487   -0.9821   47.1571 C.ar    1  ZINC000046390957   -0.1200
      4 C4         -0.7465   -1.6700   47.9475 C.ar    1  ZINC000046390957   -0.1100
      5 C5          0.5614   -1.2326   48.0500 C.ar    1  ZINC000046390957   -0.1200
      6 C6          0.9704   -0.1066   47.3626 C.ar    1  ZINC000046390957   -0.0800
      7 C7          2.3960    0.3690   47.4744 C.3     1  ZINC000046390957   -0.1100
      8 C8          0.0680    0.5834   46.5638 C.ar    1  ZINC000046390957    0.1300
      9 N9          0.4793    1.7242   45.8657 N.am    1  ZINC000046390957   -0.6800
     10 C10         0.9962    1.6062   44.6267 C.2     1  ZINC000046390957    0.5200
     11 O11         1.1050    0.5111   44.1167 O.2     1  ZINC000046390957   -0.4900
     12 C12         1.4393    2.8348   43.8748 C.3     1  ZINC000046390957    0.0700
     13 H13         2.4791    3.0539   44.1172 H       1  ZINC000046390957    0.1100
     14 C14         1.3075    2.5873   42.3707 C.3     1  ZINC000046390957   -0.1700
     15 O15         0.6060    3.9616   44.2548 O.3     1  ZINC000046390957   -0.3300
     16 C16         1.1819    5.1739   44.2512 C.2     1  ZINC000046390957    0.4700
     17 O17         2.3272    5.2977   43.8866 O.2     1  ZINC000046390957   -0.4800
     18 C18         0.4001    6.3809   44.7021 C.3     1  ZINC000046390957   -0.0300
     19 C19        -0.0687    6.1750   46.1194 C.2     1  ZINC000046390957    0.0800
     20 C20        -0.9698    6.9692   46.7053 C.2     1  ZINC000046390957   -0.2500
     21 S21        -1.2285    6.3785   48.3450 S.3     1  ZINC000046390957    0.1300
     22 C22        -0.0993    5.1223   48.0797 C.2     1  ZINC000046390957    0.0600
     23 C23         0.2849    4.0787   49.0967 C.3     1  ZINC000046390957    0.0000
     24 C24        -0.8665    3.8510   50.0421 C.ar    1  ZINC000046390957   -0.0900
     25 C25        -1.8419    2.9218   49.7321 C.ar    1  ZINC000046390957   -0.0900
     26 C26        -2.8980    2.7129   50.5992 C.ar    1  ZINC000046390957   -0.1200
     27 C27        -2.9785    3.4329   51.7764 C.ar    1  ZINC000046390957   -0.1200
     28 C28        -2.0025    4.3614   52.0869 C.ar    1  ZINC000046390957   -0.1200
     29 C29        -0.9442    4.5673   51.2218 C.ar    1  ZINC000046390957   -0.1100
     30 N30         0.3721    5.1939   46.8807 N.2     1  ZINC000046390957   -0.4500
     31 H31        -2.2948    0.4170   44.6289 H       1  ZINC000046390957    0.0800
     32 H32        -3.2112    0.8827   46.0821 H       1  ZINC000046390957    0.0700
     33 H33        -1.8969    1.9250   45.4868 H       1  ZINC000046390957    0.0600
     34 H34        -2.6695   -1.3262   47.0791 H       1  ZINC000046390957    0.1300
     35 H35        -1.0639   -2.5505   48.4863 H       1  ZINC000046390957    0.1300
     36 H36         1.2636   -1.7718   48.6684 H       1  ZINC000046390957    0.1300
     37 H37         2.9980   -0.1012   46.6969 H       1  ZINC000046390957    0.0700
     38 H38         2.4282    1.4519   47.3539 H       1  ZINC000046390957    0.0600
     39 H39         2.7929    0.1006   48.4535 H       1  ZINC000046390957    0.0700
     40 H40         0.3924    2.6000   46.2735 H       1  ZINC000046390957    0.4100
     41 H41         1.9331    1.7415   42.0855 H       1  ZINC000046390957    0.0800
     42 H42         0.2677    2.3683   42.1282 H       1  ZINC000046390957    0.0800
     43 H43         1.6280    3.4760   41.8268 H       1  ZINC000046390957    0.0800
     44 H44         1.0364    7.2646   44.6544 H       1  ZINC000046390957    0.1200
     45 H45        -0.4627    6.5189   44.0504 H       1  ZINC000046390957    0.1300
     46 H46        -1.4539    7.8224   46.2536 H       1  ZINC000046390957    0.1800
     47 H47         0.5263    3.1460   48.5869 H       1  ZINC000046390957    0.1000
     48 H48         1.1539    4.4212   49.6584 H       1  ZINC000046390957    0.1000
     49 H49        -1.7789    2.3593   48.8122 H       1  ZINC000046390957    0.1200
     50 H50        -3.6604    1.9875   50.3566 H       1  ZINC000046390957    0.1200
     51 H51        -3.8040    3.2702   52.4536 H       1  ZINC000046390957    0.1200
     52 H52        -2.0656    4.9241   53.0065 H       1  ZINC000046390957    0.1200
     53 H53        -0.1818    5.2927   51.4644 H       1  ZINC000046390957    0.1200
@<TRIPOS>BOND
     1     1     2    1
     2     1    31    1
     3     1    32    1
     4     1    33    1
     5     2     8   ar
     6     2     3   ar
     7     3     4   ar
     8     3    34    1
     9     4     5   ar
    10     4    35    1
    11     5     6   ar
    12     5    36    1
    13     6     7    1
    14     6     8   ar
    15     7    37    1
    16     7    38    1
    17     7    39    1
    18     8     9    1
    19     9    10   am
    20     9    40    1
    21    10    11    2
    22    10    12    1
    23    12    13    1
    24    12    14    1
    25    12    15    1
    26    14    41    1
    27    14    42    1
    28    14    43    1
    29    15    16    1
    30    16    17    2
    31    16    18    1
    32    18    19    1
    33    18    44    1
    34    18    45    1
    35    19    30    1
    36    19    20    2
    37    20    21    1
    38    20    46    1
    39    21    22    1
    40    22    23    1
    41    22    30    2
    42    23    24    1
    43    23    47    1
    44    23    48    1
    45    24    29   ar
    46    24    25   ar
    47    25    26   ar
    48    25    49    1
    49    26    27   ar
    50    26    50    1
    51    27    28   ar
    52    27    51    1
    53    28    29   ar
    54    28    52    1
    55    29    53    1
@<TRIPOS>SUBSTRUCTURE
     1 ZINC000046390957        1 TEMP              0 ****  ****    0 ROOT


##########                                Name:    ZINC000509132103
##########                DOCK_Rotatable_Bonds:                   7
##########                         Heavy_Atoms:                  29
##########                    Molecular_Weight:              405.52
##########                DOCK_Rotatable_Bonds:                   7
##########                       Formal_Charge:          -0.0499998
##########                     HBond_Acceptors:                   6
##########                        HBond_Donors:                   0
##########                         Heavy_Atoms:                  29
##########                          Grid_Score:          -36.441257
##########                     Grid_vdw_energy:          -34.813492
##########                      Grid_es_energy:           -1.627766
##########           Internal_energy_repulsive:           17.834877

@<TRIPOS>MOLECULE
ZINC000509132103
 52 55 1 0 0
SMALL
USER_CHARGES


@<TRIPOS>ATOM
      1 C1         -0.4869    1.5622   58.5898 C.3     1  ZINC000509132103    0.0300
      2 O2          0.2388    1.6916   57.3656 O.3     1  ZINC000509132103   -0.3000
      3 C3         -0.4392    2.1791   56.2961 C.ar    1  ZINC000509132103    0.2700
      4 C4         -1.7623    2.5898   56.4353 C.ar    1  ZINC000509132103   -0.1300
      5 C5         -2.4115    3.0806   55.3124 C.ar    1  ZINC000509132103   -0.0700
      6 C6         -1.7035    3.1318   54.1206 C.ar    1  ZINC000509132103    0.0500
      7 C7         -2.3651    3.6576   52.8728 C.3     1  ZINC000509132103   -0.0500
      8 S8         -1.1039    4.3366   51.7598 S.3     1  ZINC000509132103   -0.1500
      9 C9         -2.0492    4.7271   50.2617 C.3     1  ZINC000509132103   -0.1300
     10 C10        -1.0994    5.0790   49.1459 C.2     1  ZINC000509132103    0.5400
     11 O11        -0.9562    6.2367   48.8138 O.2     1  ZINC000509132103   -0.5100
     12 N12        -0.4091    4.1073   48.5169 N.am    1  ZINC000509132103   -0.6100
     13 C13         0.5230    4.4168   47.4273 C.3     1  ZINC000509132103    0.1500
     14 C14         0.3242    3.4395   46.2961 C.ar    1  ZINC000509132103   -0.1000
     15 C15         0.9415    3.7171   45.0845 C.ar    1  ZINC000509132103   -0.1100
     16 C16         0.8053    2.8553   44.0152 C.ar    1  ZINC000509132103   -0.1200
     17 C17         0.0494    1.7064   44.1530 C.ar    1  ZINC000509132103   -0.1200
     18 C18        -0.5679    1.4314   45.3557 C.ar    1  ZINC000509132103   -0.1100
     19 C19        -0.4375    2.3001   46.4320 C.ar    1  ZINC000509132103   -0.0600
     20 C20        -1.1616    1.9485   47.7049 C.3     1  ZINC000509132103   -0.0200
     21 H21        -2.2125    2.2200   47.6061 H       1  ZINC000509132103    0.1000
     22 C22        -1.0533    0.4644   47.9429 C.ar    1  ZINC000509132103   -0.0800
     23 C23        -2.1960   -0.2909   48.1289 C.ar    1  ZINC000509132103   -0.1100
     24 C24        -2.0967   -1.6523   48.3472 C.ar    1  ZINC000509132103   -0.1200
     25 C25        -0.8547   -2.2584   48.3792 C.ar    1  ZINC000509132103   -0.1200
     26 C26         0.2879   -1.5032   48.1924 C.ar    1  ZINC000509132103   -0.1200
     27 C27         0.1884   -0.1425   47.9697 C.ar    1  ZINC000509132103   -0.1100
     28 C28        -0.5556    2.6933   48.9001 C.3     1  ZINC000509132103    0.1200
     29 N29        -0.4514    2.7209   54.0800 N.ar    1  ZINC000509132103   -0.1900
     30 N30         0.1559    2.2711   55.1174 N.ar    1  ZINC000509132103   -0.3000
     31 H31        -1.3287    0.8854   58.4434 H       1  ZINC000509132103    0.0600
     32 H32         0.1708    1.1624   59.3616 H       1  ZINC000509132103    0.1000
     33 H33        -0.8564    2.5402   58.8982 H       1  ZINC000509132103    0.0600
     34 H34        -2.2673    2.5280   57.3880 H       1  ZINC000509132103    0.1600
     35 H35        -3.4378    3.4125   55.3641 H       1  ZINC000509132103    0.1600
     36 H36        -2.8929    2.8460   52.3719 H       1  ZINC000509132103    0.1100
     37 H37        -3.0738    4.4415   53.1401 H       1  ZINC000509132103    0.1000
     38 H38        -2.6451    3.8616   49.9723 H       1  ZINC000509132103    0.1100
     39 H39        -2.7084    5.5727   50.4581 H       1  ZINC000509132103    0.1100
     40 H40         0.3381    5.4293   47.0685 H       1  ZINC000509132103    0.1000
     41 H41         1.5468    4.3440   47.7940 H       1  ZINC000509132103    0.0900
     42 H42         1.5326    4.6146   44.9775 H       1  ZINC000509132103    0.1200
     43 H43         1.2875    3.0776   43.0748 H       1  ZINC000509132103    0.1300
     44 H44        -0.0581    1.0260   43.3213 H       1  ZINC000509132103    0.1200
     45 H45        -1.1579    0.5331   45.4614 H       1  ZINC000509132103    0.1200
     46 H46        -3.1664    0.1826   48.1040 H       1  ZINC000509132103    0.1200
     47 H47        -2.9894   -2.2424   48.4933 H       1  ZINC000509132103    0.1200
     48 H48        -0.7770   -3.3219   48.5506 H       1  ZINC000509132103    0.1200
     49 H49         1.2583   -1.9767   48.2177 H       1  ZINC000509132103    0.1200
     50 H50         1.0811    0.4475   47.8238 H       1  ZINC000509132103    0.1200
     51 H51         0.4186    2.2691   49.1436 H       1  ZINC000509132103    0.0800
     52 H52        -1.2195    2.6117   49.7607 H       1  ZINC000509132103    0.1000
@<TRIPOS>BOND
     1     1     2    1
     2     1    31    1
     3     1    32    1
     4     1    33    1
     5     2     3    1
     6     3    30   ar
     7     3     4   ar
     8     4     5   ar
     9     4    34    1
    10     5     6   ar
    11     5    35    1
    12     6     7    1
    13     6    29   ar
    14     7     8    1
    15     7    36    1
    16     7    37    1
    17     8     9    1
    18     9    10    1
    19     9    38    1
    20     9    39    1
    21    10    11    2
    22    10    12   am
    23    12    28    1
    24    12    13    1
    25    13    14    1
    26    13    40    1
    27    13    41    1
    28    14    19   ar
    29    14    15   ar
    30    15    16   ar
    31    15    42    1
    32    16    17   ar
    33    16    43    1
    34    17    18   ar
    35    17    44    1
    36    18    19   ar
    37    18    45    1
    38    19    20    1
    39    20    21    1
    40    20    22    1
    41    20    28    1
    42    22    27   ar
    43    22    23   ar
    44    23    24   ar
    45    23    46    1
    46    24    25   ar
    47    24    47    1
    48    25    26   ar
    49    25    48    1
    50    26    27   ar
    51    26    49    1
    52    27    50    1
    53    28    51    1
    54    28    52    1
    55    29    30   ar
@<TRIPOS>SUBSTRUCTURE
     1 ZINC000509132103        1 TEMP              0 ****  ****    0 ROOT


##########                                Name:    ZINC001090961577
##########                DOCK_Rotatable_Bonds:                   9
##########                         Heavy_Atoms:                  24
##########                    Molecular_Weight:             352.458
##########                DOCK_Rotatable_Bonds:                   9
##########                       Formal_Charge:                0.02
##########                     HBond_Acceptors:                   8
##########                        HBond_Donors:                   1
##########                         Heavy_Atoms:                  24
##########                          Grid_Score:          -36.436729
##########                     Grid_vdw_energy:          -36.050846
##########                      Grid_es_energy:           -0.385883
##########           Internal_energy_repulsive:            8.286908

@<TRIPOS>MOLECULE
ZINC001090961577
 48 49 1 0 0
SMALL
USER_CHARGES


@<TRIPOS>ATOM
      1 C1         -7.1937    0.8695   63.6635 C.3     1  ZINC001090961577   -0.1400
      2 C2         -8.5303    0.1326   63.5559 C.3     1  ZINC001090961577   -0.0900
      3 S3         -8.4818   -1.0046   62.1434 S.3     1  ZINC001090961577   -0.2700
      4 C4        -10.1637   -1.6830   62.1078 C.3     1  ZINC001090961577   -0.0700
      5 C5        -11.1413   -0.5991   61.6490 C.3     1  ZINC001090961577   -0.1200
      6 C6        -12.5360   -1.1679   61.6017 C.2     1  ZINC001090961577    0.5400
      7 O7        -13.3096   -0.9532   62.5108 O.2     1  ZINC001090961577   -0.5300
      8 N8        -12.9237   -1.9152   60.5493 N.am    1  ZINC001090961577   -0.6200
      9 C9        -14.2486   -2.5286   60.3755 C.3     1  ZINC001090961577    0.1100
     10 C10       -14.2398   -3.2609   59.0172 C.3     1  ZINC001090961577   -0.1100
     11 H11       -14.0111   -4.3183   59.1506 H       1  ZINC001090961577    0.0900
     12 C12       -15.5793   -3.0854   58.2989 C.3     1  ZINC001090961577   -0.1400
     13 C13       -13.1002   -2.5460   58.2442 C.3     1  ZINC001090961577    0.1500
     14 H14       -13.4564   -1.6216   57.7898 H       1  ZINC001090961577    0.1200
     15 N15       -12.5138   -3.4318   57.2354 N.pl3   1  ZINC001090961577   -0.6700
     16 C16       -11.9149   -2.8982   56.1137 C.ar    1  ZINC001090961577    0.5900
     17 N17       -11.7935   -3.6516   55.0283 N.ar    1  ZINC001090961577   -0.5700
     18 C18       -11.2267   -3.1784   53.9348 C.ar    1  ZINC001090961577    0.2700
     19 C19       -10.7500   -1.8603   53.9323 C.ar    1  ZINC001090961577   -0.3000
     20 C20       -10.1100   -1.2897   52.7330 C.2     1  ZINC001090961577    0.5300
     21 O21       -10.2248   -1.8474   51.6595 O.2     1  ZINC001090961577   -0.5100
     22 O22        -9.3980   -0.1497   52.8271 O.3     1  ZINC001090961577   -0.3600
     23 C23        -9.0588    0.5203   51.5843 C.3     1  ZINC001090961577    0.0400
     24 C24       -10.8980   -1.0988   55.0996 C.ar    1  ZINC001090961577    0.2600
     25 N25       -11.4815   -1.6446   56.1497 N.ar    1  ZINC001090961577   -0.5700
     26 C26       -12.0916   -2.2478   59.3786 C.3     1  ZINC001090961577    0.0900
     27 H27        -7.2228    1.5528   64.5121 H       1  ZINC001090961577    0.0700
     28 H28        -6.3907    0.1465   63.8064 H       1  ZINC001090961577    0.0700
     29 H29        -7.0155    1.4341   62.7483 H       1  ZINC001090961577    0.0700
     30 H30        -8.7085   -0.4322   64.4710 H       1  ZINC001090961577    0.0800
     31 H31        -9.3333    0.8556   63.4129 H       1  ZINC001090961577    0.0800
     32 H32       -10.2019   -2.5236   61.4149 H       1  ZINC001090961577    0.0900
     33 H33       -10.4399   -2.0223   63.1062 H       1  ZINC001090961577    0.0900
     34 H34       -11.1129    0.2357   62.3493 H       1  ZINC001090961577    0.1000
     35 H35       -10.8573   -0.2503   60.6562 H       1  ZINC001090961577    0.1000
     36 H36       -14.4358   -3.2405   61.1793 H       1  ZINC001090961577    0.0800
     37 H37       -15.0175   -1.7560   60.3752 H       1  ZINC001090961577    0.0800
     38 H38       -15.7748   -2.0236   58.1489 H       1  ZINC001090961577    0.0600
     39 H39       -15.5419   -3.5880   57.3324 H       1  ZINC001090961577    0.0600
     40 H40       -16.3754   -3.5195   58.9037 H       1  ZINC001090961577    0.0700
     41 H41       -12.5468   -4.3937   57.3565 H       1  ZINC001090961577    0.4200
     42 H42       -11.1310   -3.7977   53.0551 H       1  ZINC001090961577    0.1800
     43 H43        -8.4866    1.4222   51.8022 H       1  ZINC001090961577    0.1100
     44 H44        -8.4621   -0.1473   50.9628 H       1  ZINC001090961577    0.0700
     45 H45        -9.9730    0.7889   51.0552 H       1  ZINC001090961577    0.0700
     46 H46       -10.5437   -0.0794   55.1376 H       1  ZINC001090961577    0.1800
     47 H47       -11.4559   -1.4044   59.1090 H       1  ZINC001090961577    0.0900
     48 H48       -11.4854   -3.1290   59.5886 H       1  ZINC001090961577    0.0800
@<TRIPOS>BOND
     1     1     2    1
     2     1    27    1
     3     1    28    1
     4     1    29    1
     5     2     3    1
     6     2    30    1
     7     2    31    1
     8     3     4    1
     9     4     5    1
    10     4    32    1
    11     4    33    1
    12     5     6    1
    13     5    34    1
    14     5    35    1
    15     6     7    2
    16     6     8   am
    17     8    26    1
    18     8     9    1
    19     9    10    1
    20     9    36    1
    21     9    37    1
    22    10    11    1
    23    10    12    1
    24    10    13    1
    25    12    38    1
    26    12    39    1
    27    12    40    1
    28    13    14    1
    29    13    15    1
    30    13    26    1
    31    15    16    1
    32    15    41    1
    33    16    25   ar
    34    16    17   ar
    35    17    18   ar
    36    18    19   ar
    37    18    42    1
    38    19    20    1
    39    19    24   ar
    40    20    21    2
    41    20    22    1
    42    22    23    1
    43    23    43    1
    44    23    44    1
    45    23    45    1
    46    24    25   ar
    47    24    46    1
    48    26    47    1
    49    26    48    1
@<TRIPOS>SUBSTRUCTURE
     1 ZINC001090961577        1 TEMP              0 ****  ****    0 ROOT


##########                                Name:     oleObject42.pdb
##########                DOCK_Rotatable_Bonds:                   9
##########                         Heavy_Atoms:                  36
##########                    Molecular_Weight:             527.493
##########                DOCK_Rotatable_Bonds:                   9
##########                       Formal_Charge:         9.99384e-05
##########                     HBond_Acceptors:                   8
##########                        HBond_Donors:                   0
##########                         Heavy_Atoms:                  36
##########                          Grid_Score:          -36.358364
##########                     Grid_vdw_energy:          -36.669899
##########                      Grid_es_energy:            0.311534
##########           Internal_energy_repulsive:           26.094816

@<TRIPOS>MOLECULE
oleObject42.pdb
 68 71 1 0 0
SMALL
NO_CHARGES


@<TRIPOS>ATOM
      1 C          -9.7149   -0.2968   52.7141 C.ar    1  UNL        -0.0435
      2 C         -10.4910   -0.1714   53.8754 C.ar    1  UNL        -0.0559
      3 C         -10.3055    0.9487   54.7075 C.ar    1  UNL        -0.0272
      4 C          -9.3337    1.9115   54.3353 C.ar    1  UNL         0.0699
      5 N          -8.5912    1.7780   53.2114 N.ar    1  UNL        -0.2586
      6 C          -8.7764    0.7037   52.4218 C.ar    1  UNL         0.0272
      7 C          -9.0702    3.1646   55.1877 C.3     1  UNL         0.1101
      8 C          -8.5822    2.8397   56.6129 C.ar    1  UNL         0.0699
      9 C          -8.9993    3.6087   57.7286 C.ar    1  UNL        -0.0272
     10 C          -8.5073    3.2645   59.0018 C.ar    1  UNL        -0.0559
     11 C          -7.6257    2.1810   59.1242 C.ar    1  UNL        -0.0435
     12 C          -7.2625    1.4765   57.9671 C.ar    1  UNL         0.0272
     13 N          -7.7266    1.7988   56.7455 N.ar    1  UNL        -0.2586
     14 C          -9.9575    4.7870   57.5916 C.3     1  UNL        -0.0379
     15 N          -8.2505    4.1841   54.4758 N.am    1  UNL        -0.2902
     16 C          -6.8555    4.1547   54.4520 C.2     1  UNL         0.2180
     17 O          -6.2420    3.4414   55.2288 O.2     1  UNL        -0.2772
     18 C          -6.1391    5.2829   53.6702 C.3     1  UNL         0.0385
     19 C          -6.0768    4.9674   52.1562 C.3     1  UNL        -0.0289
     20 C          -5.0283    3.8832   51.8275 C.3     1  UNL        -0.0010
     21 N          -3.6912    4.2496   52.3424 N.4     1  UNL        -0.3010
     22 C          -3.6628    4.5273   53.7956 C.3     1  UNL        -0.0010
     23 C          -4.7162    5.5825   54.2108 C.3     1  UNL        -0.0289
     24 C          -2.6030    3.3609   51.8779 C.3     1  UNL         0.0222
     25 C          -2.2835    3.4920   50.3719 C.3     1  UNL         0.0661
     26 O          -1.5235    2.3378   49.9810 O.3     1  UNL        -0.3432
     27 C          -1.6142    1.8889   48.6864 C.ar    1  UNL         0.0937
     28 C          -2.5075    0.8468   48.3862 C.ar    1  UNL        -0.0288
     29 C          -2.6150    0.3700   47.0693 C.ar    1  UNL        -0.0408
     30 C          -1.8256    0.9346   46.0535 C.ar    1  UNL         0.0422
     31 C          -0.9276    1.9732   46.3515 C.ar    1  UNL        -0.0221
     32 C          -0.8187    2.4517   47.6681 C.ar    1  UNL         0.0723
     33 CL          0.3135    3.7455   48.0148 Cl      1  UNL        -0.0814
     34 CL         -1.9591    0.3403   44.4122 Cl      1  UNL        -0.0843
     35 C          -8.9786    5.3426   53.9201 C.3     1  UNL         0.0038
     36 C         -11.1505    1.0895   55.9690 C.3     1  UNL        -0.0379
     37 H          -9.8383   -1.1501   52.0537 H       1  UNL         0.0639
     38 H         -11.2258   -0.9325   54.1227 H       1  UNL         0.0627
     39 H          -8.1545    0.6451   51.5294 H       1  UNL         0.0840
     40 H         -10.0517    3.6261   55.3239 H       1  UNL         0.0643
     41 H          -8.8033    3.8263   59.8832 H       1  UNL         0.0627
     42 H          -7.2319    1.8927   60.0943 H       1  UNL         0.0639
     43 H          -6.5803    0.6289   58.0182 H       1  UNL         0.0840
     44 H          -9.5164    5.5865   56.9837 H       1  UNL         0.0280
     45 H         -10.2075    5.2194   58.5685 H       1  UNL         0.0280
     46 H         -10.9001    4.4805   57.1217 H       1  UNL         0.0280
     47 H          -6.7101    6.2084   53.7962 H       1  UNL         0.0402
     48 H          -5.8166    5.8840   51.6112 H       1  UNL         0.0288
     49 H          -7.0610    4.6525   51.7898 H       1  UNL         0.0288
     50 H          -4.9855    3.7537   50.7384 H       1  UNL         0.0431
     51 H          -5.3530    2.9304   52.2648 H       1  UNL         0.0431
     52 H          -2.6689    4.8932   54.0838 H       1  UNL         0.0431
     53 H          -3.8437    3.6027   54.3562 H       1  UNL         0.0431
     54 H          -4.3946    6.5577   53.8227 H       1  UNL         0.0288
     55 H          -4.7414    5.6754   55.3041 H       1  UNL         0.0288
     56 H          -2.8721    2.3179   52.0882 H       1  UNL         0.0455
     57 H          -1.6906    3.5795   52.4474 H       1  UNL         0.0455
     58 H          -1.7015    4.4034   50.1881 H       1  UNL         0.0586
     59 H          -3.2117    3.5448   49.7897 H       1  UNL         0.0586
     60 H          -3.1153    0.4110   49.1739 H       1  UNL         0.0652
     61 H          -3.3073   -0.4347   46.8382 H       1  UNL         0.0639
     62 H          -0.3166    2.4055   45.5641 H       1  UNL         0.0655
     63 H          -9.9894    5.0503   53.6094 H       1  UNL         0.0433
     64 H          -8.4476    5.7333   53.0429 H       1  UNL         0.0433
     65 H          -9.0483    6.1328   54.6780 H       1  UNL         0.0433
     66 H         -11.8719    0.2685   56.0651 H       1  UNL         0.0280
     67 H         -11.7235    2.0247   55.9617 H       1  UNL         0.0280
     68 H         -10.5231    1.0789   56.8684 H       1  UNL         0.0280
@<TRIPOS>BOND
     1     1     2   ar
     2     1     6   ar
     3     1    37    1
     4     2     3   ar
     5     2    38    1
     6     3     4   ar
     7     3    36    1
     8     4     5   ar
     9     4     7    1
    10     5     6   ar
    11     6    39    1
    12     7     8    1
    13     7    15    1
    14     7    40    1
    15     8     9   ar
    16     8    13   ar
    17     9    10   ar
    18     9    14    1
    19    10    11   ar
    20    10    41    1
    21    11    12   ar
    22    11    42    1
    23    12    13   ar
    24    12    43    1
    25    14    44    1
    26    14    45    1
    27    14    46    1
    28    15    16   am
    29    15    35    1
    30    16    17    2
    31    16    18    1
    32    18    19    1
    33    18    23    1
    34    18    47    1
    35    19    20    1
    36    19    48    1
    37    19    49    1
    38    20    21    1
    39    20    50    1
    40    20    51    1
    41    21    22    1
    42    21    24    1
    43    22    23    1
    44    22    52    1
    45    22    53    1
    46    23    54    1
    47    23    55    1
    48    24    25    1
    49    24    56    1
    50    24    57    1
    51    25    26    1
    52    25    58    1
    53    25    59    1
    54    26    27    1
    55    27    28   ar
    56    27    32   ar
    57    28    29   ar
    58    28    60    1
    59    29    30   ar
    60    29    61    1
    61    30    31   ar
    62    30    34    1
    63    31    32   ar
    64    31    62    1
    65    32    33    1
    66    35    63    1
    67    35    64    1
    68    35    65    1
    69    36    66    1
    70    36    67    1
    71    36    68    1
@<TRIPOS>SUBSTRUCTURE
     1 UNL         1 TEMP              0 ****  ****    0 ROOT


##########                                Name:     oleObject14.pdb
##########                DOCK_Rotatable_Bonds:                   9
##########                         Heavy_Atoms:                  33
##########                    Molecular_Weight:             484.424
##########                DOCK_Rotatable_Bonds:                   9
##########                       Formal_Charge:         0.000299782
##########                     HBond_Acceptors:                   7
##########                        HBond_Donors:                   1
##########                         Heavy_Atoms:                  33
##########                          Grid_Score:          -36.230057
##########                     Grid_vdw_energy:          -37.263844
##########                      Grid_es_energy:            1.033787
##########           Internal_energy_repulsive:           10.426142

@<TRIPOS>MOLECULE
oleObject14.pdb
 60 63 1 0 0
SMALL
NO_CHARGES


@<TRIPOS>ATOM
      1 C          -1.1438   -0.3902   48.3977 C.ar    1  UNL         0.0422
      2 C          -2.3806    0.2301   48.6345 C.ar    1  UNL        -0.0408
      3 C          -2.4375    1.6091   48.8970 C.ar    1  UNL        -0.0288
      4 C          -1.2532    2.3764   48.9240 C.ar    1  UNL         0.0937
      5 C          -0.0154    1.7451   48.6848 C.ar    1  UNL         0.0723
      6 C           0.0385    0.3660   48.4226 C.ar    1  UNL        -0.0221
      7 CL          1.4803    2.6606   48.7087 Cl      1  UNL        -0.0814
      8 O          -1.2659    3.7344   49.1783 O.3     1  UNL        -0.3432
      9 C          -1.8544    4.3187   50.3538 C.3     1  UNL         0.0661
     10 C          -1.5896    3.3643   51.5367 C.3     1  UNL         0.0222
     11 N          -1.8167    3.9879   52.8593 N.4     1  UNL        -0.3010
     12 C          -3.2226    4.3803   53.1141 C.3     1  UNL        -0.0010
     13 C          -3.3781    5.1257   54.4584 C.3     1  UNL        -0.0289
     14 C          -2.7989    4.3337   55.6554 C.3     1  UNL         0.0382
     15 C          -1.3624    3.8528   55.3293 C.3     1  UNL        -0.0289
     16 C          -1.2435    3.1669   53.9479 C.3     1  UNL        -0.0010
     17 C          -3.7288    3.1683   56.0746 C.2     1  UNL         0.2156
     18 O          -3.2982    2.1601   56.6042 O.2     1  UNL        -0.2774
     19 N          -5.1010    3.2786   55.8902 N.am    1  UNL        -0.3025
     20 C          -6.1375    2.2837   56.2240 C.3     1  UNL         0.0900
     21 C          -6.7573    2.5089   57.6019 C.ar    1  UNL        -0.0217
     22 C          -6.8642    3.8029   58.1505 C.ar    1  UNL        -0.0568
     23 C          -7.4266    3.9909   59.4236 C.ar    1  UNL        -0.0619
     24 C          -7.8900    2.8875   60.1573 C.ar    1  UNL        -0.0622
     25 C          -7.7927    1.5964   59.6153 C.ar    1  UNL        -0.0619
     26 C          -7.2303    1.4088   58.3422 C.ar    1  UNL        -0.0568
     27 C          -7.2194    2.2146   55.1504 C.ar    1  UNL         0.0652
     28 C          -8.5319    1.7924   55.4467 C.ar    1  UNL        -0.0383
     29 C          -9.4813    1.7416   54.4136 C.ar    1  UNL        -0.0588
     30 C          -9.0853    2.1135   53.1195 C.ar    1  UNL        -0.0438
     31 C          -7.7562    2.5204   52.9113 C.ar    1  UNL         0.0272
     32 N          -6.8431    2.5696   53.9023 N.ar    1  UNL        -0.2590
     33 CL         -1.0762   -2.1087   48.0709 Cl      1  UNL        -0.0843
     34 H          -3.2952   -0.3558   48.6147 H       1  UNL         0.0639
     35 H          -3.4044    2.0678   49.0768 H       1  UNL         0.0652
     36 H           0.9951   -0.1150   48.2392 H       1  UNL         0.0655
     37 H          -2.9332    4.4497   50.2067 H       1  UNL         0.0586
     38 H          -1.3971    5.2943   50.5630 H       1  UNL         0.0586
     39 H          -0.5449    3.0336   51.4693 H       1  UNL         0.0455
     40 H          -2.2242    2.4749   51.4287 H       1  UNL         0.0455
     41 H          -3.8610    3.4871   53.1188 H       1  UNL         0.0431
     42 H          -3.5872    5.0433   52.3210 H       1  UNL         0.0431
     43 H          -4.4358    5.3565   54.6310 H       1  UNL         0.0288
     44 H          -2.8560    6.0885   54.3849 H       1  UNL         0.0288
     45 H          -2.7006    5.0310   56.4916 H       1  UNL         0.0402
     46 H          -1.0056    3.1742   56.1145 H       1  UNL         0.0288
     47 H          -0.6917    4.7218   55.3389 H       1  UNL         0.0288
     48 H          -1.7490    2.1935   53.9799 H       1  UNL         0.0431
     49 H          -0.1815    2.9748   53.7477 H       1  UNL         0.0431
     50 H          -5.4271    4.1837   55.5760 H       1  UNL         0.1504
     51 H          -5.6435    1.3036   56.2292 H       1  UNL         0.0624
     52 H          -6.5036    4.6644   57.5963 H       1  UNL         0.0626
     53 H          -7.5018    4.9908   59.8413 H       1  UNL         0.0623
     54 H          -8.3254    3.0330   61.1419 H       1  UNL         0.0623
     55 H          -8.1541    0.7418   60.1804 H       1  UNL         0.0623
     56 H          -7.1615    0.4055   57.9308 H       1  UNL         0.0626
     57 H          -8.8111    1.5089   56.4569 H       1  UNL         0.0643
     58 H         -10.5001    1.4210   54.6115 H       1  UNL         0.0624
     59 H          -9.7913    2.0872   52.2947 H       1  UNL         0.0639
     60 H          -7.4119    2.8155   51.9209 H       1  UNL         0.0840
@<TRIPOS>BOND
     1     1     2   ar
     2     1     6   ar
     3     1    33    1
     4     2     3   ar
     5     2    34    1
     6     3     4   ar
     7     3    35    1
     8     4     5   ar
     9     4     8    1
    10     5     6   ar
    11     5     7    1
    12     6    36    1
    13     8     9    1
    14     9    10    1
    15     9    37    1
    16     9    38    1
    17    10    11    1
    18    10    39    1
    19    10    40    1
    20    11    12    1
    21    11    16    1
    22    12    13    1
    23    12    41    1
    24    12    42    1
    25    13    14    1
    26    13    43    1
    27    13    44    1
    28    14    15    1
    29    14    17    1
    30    14    45    1
    31    15    16    1
    32    15    46    1
    33    15    47    1
    34    16    48    1
    35    16    49    1
    36    17    18    2
    37    17    19   am
    38    19    20    1
    39    19    50    1
    40    20    21    1
    41    20    27    1
    42    20    51    1
    43    21    22   ar
    44    21    26   ar
    45    22    23   ar
    46    22    52    1
    47    23    24   ar
    48    23    53    1
    49    24    25   ar
    50    24    54    1
    51    25    26   ar
    52    25    55    1
    53    26    56    1
    54    27    28   ar
    55    27    32   ar
    56    28    29   ar
    57    28    57    1
    58    29    30   ar
    59    29    58    1
    60    30    31   ar
    61    30    59    1
    62    31    32   ar
    63    31    60    1
@<TRIPOS>SUBSTRUCTURE
     1 UNL         1 TEMP              0 ****  ****    0 ROOT


##########                                Name:    ZINC001078110631
##########                DOCK_Rotatable_Bonds:                   7
##########                         Heavy_Atoms:                  25
##########                    Molecular_Weight:             353.369
##########                DOCK_Rotatable_Bonds:                   7
##########                       Formal_Charge:           0.0100006
##########                     HBond_Acceptors:                   8
##########                        HBond_Donors:                   2
##########                         Heavy_Atoms:                  25
##########                          Grid_Score:          -36.108593
##########                     Grid_vdw_energy:          -34.548595
##########                      Grid_es_energy:           -1.559998
##########           Internal_energy_repulsive:            6.416630

@<TRIPOS>MOLECULE
ZINC001078110631
 46 48 1 0 0
SMALL
USER_CHARGES


@<TRIPOS>ATOM
      1 O1         -1.0110    2.6743   50.1578 O.2     1  ZINC001078110631   -0.5100
      2 C2         -2.1494    2.8101   49.7528 C.2     1  ZINC001078110631    0.5600
      3 N3         -2.6154    2.0118   48.7720 N.am    1  ZINC001078110631   -0.7200
      4 C4         -1.7484    0.9844   48.1897 C.3     1  ZINC001078110631    0.1500
      5 H5         -1.0115    0.6528   48.9211 H       1  ZINC001078110631    0.1200
      6 C6         -1.0443    1.5291   46.9283 C.3     1  ZINC001078110631    0.0300
      7 N7         -1.0064    0.3753   45.9931 N.3     1  ZINC001078110631   -0.5000
      8 C8         -0.8322    0.8273   44.6063 C.3     1  ZINC001078110631    0.0300
      9 C9          0.6287    1.2203   44.3777 C.3     1  ZINC001078110631    0.1300
     10 N10         0.7204    2.6701   44.1881 N.am    1  ZINC001078110631   -0.6200
     11 C11         0.8802    3.6393   45.2786 C.3     1  ZINC001078110631    0.1000
     12 C12         1.3601    4.9435   44.6037 C.3     1  ZINC001078110631   -0.1300
     13 C13         0.8038    4.7799   43.1703 C.3     1  ZINC001078110631   -0.1600
     14 C14         0.6746    3.2831   42.9927 C.2     1  ZINC001078110631    0.5200
     15 O15         0.5417    2.7188   41.9274 O.2     1  ZINC001078110631   -0.5200
     16 C16        -2.3241   -0.2860   46.1760 C.3     1  ZINC001078110631    0.0000
     17 C17        -2.5900   -0.2108   47.6972 C.3     1  ZINC001078110631    0.1000
     18 H18        -3.6483   -0.0326   47.8882 H       1  ZINC001078110631    0.0700
     19 O19        -2.1677   -1.4178   48.3352 O.3     1  ZINC001078110631   -0.5500
     20 C20        -3.0228    3.8449   50.3394 C.ar    1  ZINC001078110631   -0.1900
     21 C21        -4.1254    3.4757   51.1136 C.ar    1  ZINC001078110631   -0.0300
     22 C22        -4.9376    4.4459   51.6589 C.ar    1  ZINC001078110631   -0.1700
     23 C23        -4.6636    5.7883   51.4413 C.ar    1  ZINC001078110631    0.1600
     24 F24        -5.4646    6.7340   51.9791 F       1  ZINC001078110631   -0.1200
     25 C25        -3.5721    6.1633   50.6751 C.ar    1  ZINC001078110631   -0.2000
     26 C26        -2.7467    5.2003   50.1270 C.ar    1  ZINC001078110631    0.2000
     27 F27        -1.6822    5.5659   49.3799 F       1  ZINC001078110631   -0.1000
     28 H28        -3.5249    2.1174   48.4517 H       1  ZINC001078110631    0.4000
     29 H29        -1.6181    2.3493   46.4970 H       1  ZINC001078110631    0.0500
     30 H30        -0.0330    1.8566   47.1691 H       1  ZINC001078110631    0.1000
     31 H31        -1.1025    0.0209   43.9247 H       1  ZINC001078110631    0.0400
     32 H32        -1.4735    1.6892   44.4218 H       1  ZINC001078110631    0.0800
     33 H33         1.2231    0.9288   45.2436 H       1  ZINC001078110631    0.0900
     34 H34         1.0068    0.7132   43.4901 H       1  ZINC001078110631    0.0800
     35 H35        -0.0733    3.8032   45.7804 H       1  ZINC001078110631    0.0700
     36 H36         1.6263    3.2864   45.9905 H       1  ZINC001078110631    0.0800
     37 H37         0.9286    5.8171   45.0922 H       1  ZINC001078110631    0.0900
     38 H38         2.4486    5.0007   44.5955 H       1  ZINC001078110631    0.0800
     39 H39        -0.1688    5.2639   43.0810 H       1  ZINC001078110631    0.1100
     40 H40         1.5029    5.1888   42.4407 H       1  ZINC001078110631    0.1000
     41 H41        -3.0980    0.2501   45.6270 H       1  ZINC001078110631    0.0600
     42 H42        -2.2763   -1.3252   45.8503 H       1  ZINC001078110631    0.0900
     43 H43        -2.6263   -2.2095   48.0219 H       1  ZINC001078110631    0.3800
     44 H44        -4.3410    2.4314   51.2843 H       1  ZINC001078110631    0.1500
     45 H45        -5.7902    4.1605   52.2572 H       1  ZINC001078110631    0.1500
     46 H46        -3.3638    7.2099   50.5090 H       1  ZINC001078110631    0.1600
@<TRIPOS>BOND
     1     1     2    2
     2     2     3   am
     3     2    20    1
     4     3     4    1
     5     3    28    1
     6     4     5    1
     7     4    17    1
     8     4     6    1
     9     6     7    1
    10     6    29    1
    11     6    30    1
    12     7     8    1
    13     7    16    1
    14     8     9    1
    15     8    31    1
    16     8    32    1
    17     9    10    1
    18     9    33    1
    19     9    34    1
    20    10    14   am
    21    10    11    1
    22    11    12    1
    23    11    35    1
    24    11    36    1
    25    12    13    1
    26    12    37    1
    27    12    38    1
    28    13    14    1
    29    13    39    1
    30    13    40    1
    31    14    15    2
    32    16    17    1
    33    16    41    1
    34    16    42    1
    35    17    18    1
    36    17    19    1
    37    19    43    1
    38    20    26   ar
    39    20    21   ar
    40    21    22   ar
    41    21    44    1
    42    22    23   ar
    43    22    45    1
    44    23    24    1
    45    23    25   ar
    46    25    26   ar
    47    25    46    1
    48    26    27    1
@<TRIPOS>SUBSTRUCTURE
     1 ZINC001078110631        1 TEMP              0 ****  ****    0 ROOT


##########                                Name:    ZINC000892249927
##########                DOCK_Rotatable_Bonds:                   8
##########                         Heavy_Atoms:                  27
##########                    Molecular_Weight:             364.487
##########                DOCK_Rotatable_Bonds:                   8
##########                       Formal_Charge:          -0.0300015
##########                     HBond_Acceptors:                   4
##########                        HBond_Donors:                   1
##########                         Heavy_Atoms:                  27
##########                          Grid_Score:          -36.084194
##########                     Grid_vdw_energy:          -35.107353
##########                      Grid_es_energy:           -0.976843
##########           Internal_energy_repulsive:           14.374707

@<TRIPOS>MOLECULE
ZINC000892249927
 55 58 1 0 0
SMALL
USER_CHARGES


@<TRIPOS>ATOM
      1 O1         -3.3991    1.2169   49.5657 O.2     1  ZINC000892249927   -0.5300
      2 C2         -2.3530    1.8296   49.6020 C.2     1  ZINC000892249927    0.5100
      3 C3         -2.1262    2.8707   50.6676 C.3     1  ZINC000892249927   -0.1400
      4 C4         -3.0148    4.0853   50.3914 C.3     1  ZINC000892249927   -0.1000
      5 C5         -2.9725    5.0318   51.5928 C.3     1  ZINC000892249927   -0.0800
      6 C6         -3.8047    4.4606   52.7118 C.ar    1  ZINC000892249927   -0.0900
      7 C7         -5.1271    4.1257   52.4883 C.ar    1  ZINC000892249927   -0.1100
      8 C8         -5.8905    3.6017   53.5148 C.ar    1  ZINC000892249927   -0.1100
      9 C9         -5.3313    3.4121   54.7647 C.ar    1  ZINC000892249927   -0.0500
     10 C10        -6.1636    2.8414   55.8839 C.3     1  ZINC000892249927   -0.1200
     11 C11        -5.5134    1.7853   56.7800 C.3     1  ZINC000892249927   -0.1800
     12 C12        -5.7603    3.1969   57.3162 C.3     1  ZINC000892249927   -0.1700
     13 C13        -4.0084    3.7457   54.9878 C.ar    1  ZINC000892249927   -0.1200
     14 C14        -3.2441    4.2661   53.9603 C.ar    1  ZINC000892249927   -0.1100
     15 N15        -1.3912    1.5753   48.6927 N.am    1  ZINC000892249927   -0.7300
     16 C16        -1.6118    0.5632   47.6568 C.3     1  ZINC000892249927    0.1400
     17 H17        -2.6477    0.2259   47.6912 H       1  ZINC000892249927    0.1000
     18 C18        -0.6773   -0.6267   47.8958 C.3     1  ZINC000892249927   -0.1700
     19 C19         0.7748   -0.1585   47.7697 C.3     1  ZINC000892249927    0.0600
     20 O20         0.9775    0.4186   46.4782 O.3     1  ZINC000892249927   -0.3700
     21 C21         0.1643    1.5641   46.2168 C.3     1  ZINC000892249927    0.1400
     22 H22         0.3660    2.3313   46.9643 H       1  ZINC000892249927    0.0700
     23 C23         0.4809    2.1029   44.8455 C.ar    1  ZINC000892249927   -0.1400
     24 C24         0.4809    3.4691   44.6109 C.ar    1  ZINC000892249927   -0.0700
     25 C25         0.7785    3.9196   43.3336 C.ar    1  ZINC000892249927   -0.1700
     26 C26         1.0632    2.9981   42.3440 C.ar    1  ZINC000892249927    0.1000
     27 N27         1.0540    1.7050   42.6034 N.ar    1  ZINC000892249927   -0.4900
     28 C28         0.7807    1.2413   43.8071 C.ar    1  ZINC000892249927    0.1300
     29 C29        -1.3145    1.1657   46.2802 C.3     1  ZINC000892249927   -0.1500
     30 H30        -2.3752    2.4526   51.6431 H       1  ZINC000892249927    0.0900
     31 H31        -1.0800    3.1767   50.6599 H       1  ZINC000892249927    0.0900
     32 H32        -2.6526    4.6064   49.5052 H       1  ZINC000892249927    0.0700
     33 H33        -4.0400    3.7549   50.2250 H       1  ZINC000892249927    0.0700
     34 H34        -1.9420    5.1469   51.9286 H       1  ZINC000892249927    0.0700
     35 H35        -3.3713    6.0041   51.3034 H       1  ZINC000892249927    0.0700
     36 H36        -5.5640    4.2738   51.5118 H       1  ZINC000892249927    0.1200
     37 H37        -6.9239    3.3407   53.3403 H       1  ZINC000892249927    0.1200
     38 H38        -7.2276    2.7361   55.6718 H       1  ZINC000892249927    0.1100
     39 H39        -6.1498    0.9850   57.1577 H       1  ZINC000892249927    0.1000
     40 H40        -4.4837    1.5035   56.5601 H       1  ZINC000892249927    0.1000
     41 H41        -4.8931    3.8436   57.4492 H       1  ZINC000892249927    0.1000
     42 H42        -6.5590    3.3251   58.0468 H       1  ZINC000892249927    0.1000
     43 H43        -3.5714    3.5973   55.9642 H       1  ZINC000892249927    0.1200
     44 H44        -2.2105    4.5267   54.1347 H       1  ZINC000892249927    0.1200
     45 H45        -0.5531    2.0626   48.7242 H       1  ZINC000892249927    0.4000
     46 H46        -0.8455   -1.0269   48.8956 H       1  ZINC000892249927    0.0800
     47 H47        -0.8760   -1.4006   47.1544 H       1  ZINC000892249927    0.0800
     48 H48         0.9846    0.5862   48.5375 H       1  ZINC000892249927    0.0500
     49 H49         1.4436   -1.0098   47.8965 H       1  ZINC000892249927    0.1000
     50 H50         0.2540    4.1662   45.4040 H       1  ZINC000892249927    0.1300
     51 H51         0.7873    4.9772   43.1149 H       1  ZINC000892249927    0.1400
     52 H52         1.2957    3.3407   41.3465 H       1  ZINC000892249927    0.1600
     53 H53         0.7827    0.1754   43.9815 H       1  ZINC000892249927    0.1600
     54 H54        -1.5267    0.4282   45.5061 H       1  ZINC000892249927    0.0900
     55 H55        -1.9363    2.0474   46.1246 H       1  ZINC000892249927    0.0800
@<TRIPOS>BOND
     1     1     2    2
     2     2     3    1
     3     2    15   am
     4     3     4    1
     5     3    30    1
     6     3    31    1
     7     4     5    1
     8     4    32    1
     9     4    33    1
    10     5     6    1
    11     5    34    1
    12     5    35    1
    13     6    14   ar
    14     6     7   ar
    15     7     8   ar
    16     7    36    1
    17     8     9   ar
    18     8    37    1
    19     9    10    1
    20     9    13   ar
    21    10    12    1
    22    10    11    1
    23    10    38    1
    24    11    12    1
    25    11    39    1
    26    11    40    1
    27    12    41    1
    28    12    42    1
    29    13    14   ar
    30    13    43    1
    31    14    44    1
    32    15    16    1
    33    15    45    1
    34    16    17    1
    35    16    29    1
    36    16    18    1
    37    18    19    1
    38    18    46    1
    39    18    47    1
    40    19    20    1
    41    19    48    1
    42    19    49    1
    43    20    21    1
    44    21    22    1
    45    21    23    1
    46    21    29    1
    47    23    28   ar
    48    23    24   ar
    49    24    25   ar
    50    24    50    1
    51    25    26   ar
    52    25    51    1
    53    26    27   ar
    54    26    52    1
    55    27    28   ar
    56    28    53    1
    57    29    54    1
    58    29    55    1
@<TRIPOS>SUBSTRUCTURE
     1 ZINC000892249927        1 TEMP              0 ****  ****    0 ROOT


##########                                Name:     oleObject27.pdb
##########                DOCK_Rotatable_Bonds:                   9
##########                         Heavy_Atoms:                  35
##########                    Molecular_Weight:             513.466
##########                DOCK_Rotatable_Bonds:                   9
##########                       Formal_Charge:         0.000199873
##########                     HBond_Acceptors:                   8
##########                        HBond_Donors:                   1
##########                         Heavy_Atoms:                  35
##########                          Grid_Score:          -36.044613
##########                     Grid_vdw_energy:          -36.109341
##########                      Grid_es_energy:            0.064727
##########           Internal_energy_repulsive:           17.251017

@<TRIPOS>MOLECULE
oleObject27.pdb
 65 68 1 0 0
SMALL
NO_CHARGES


@<TRIPOS>ATOM
      1 C         -11.7392    4.9730   55.7476 C.ar    1  UNL        -0.0620
      2 C         -11.3832    4.8393   54.3978 C.ar    1  UNL        -0.0590
      3 C         -10.3932    3.9188   54.0023 C.ar    1  UNL        -0.0456
      4 C          -9.7543    3.1133   54.9777 C.ar    1  UNL        -0.0187
      5 C         -10.1156    3.2673   56.3342 C.ar    1  UNL        -0.0565
      6 C         -11.1019    4.1882   56.7172 C.ar    1  UNL        -0.0619
      7 C          -8.6709    2.0970   54.5832 C.3     1  UNL         0.0921
      8 C          -9.2242    0.9380   53.7481 C.ar    1  UNL         0.0681
      9 C         -10.1211   -0.0189   54.2859 C.ar    1  UNL        -0.0272
     10 C         -10.5695   -1.0582   53.4491 C.ar    1  UNL        -0.0559
     11 C         -10.1093   -1.1172   52.1255 C.ar    1  UNL        -0.0435
     12 C          -9.2093   -0.1367   51.6822 C.ar    1  UNL         0.0272
     13 N          -8.7749    0.8615   52.4742 N.ar    1  UNL        -0.2587
     14 C         -10.6000    0.0352   55.7321 C.3     1  UNL        -0.0379
     15 N          -7.5260    2.7164   53.9002 N.am    1  UNL        -0.2865
     16 C          -6.3235    3.0104   54.5174 C.2     1  UNL         0.3014
     17 O          -6.1317    2.7732   55.6984 O.2     1  UNL        -0.2541
     18 N          -5.3557    3.5980   53.7005 N.am    1  UNL        -0.2833
     19 C          -4.0089    3.9761   54.2092 C.3     1  UNL         0.0284
     20 C          -3.2079    4.9310   53.2910 C.3     1  UNL         0.0142
     21 N          -3.2424    4.5166   51.8777 N.4     1  UNL        -0.2979
     22 C          -4.6435    4.4822   51.4139 C.3     1  UNL         0.0142
     23 C          -5.5038    3.4888   52.2283 C.3     1  UNL         0.0284
     24 C          -2.4439    3.2961   51.6104 C.3     1  UNL         0.0223
     25 C          -1.5019    3.4384   50.3980 C.3     1  UNL         0.0661
     26 O          -2.0683    2.6796   49.3153 O.3     1  UNL        -0.3432
     27 C          -1.4524    2.5200   48.0889 C.ar    1  UNL         0.0937
     28 C          -0.4923    3.4362   47.6085 C.ar    1  UNL        -0.0288
     29 C           0.1103    3.2363   46.3552 C.ar    1  UNL        -0.0408
     30 C          -0.2410    2.1232   45.5754 C.ar    1  UNL         0.0422
     31 C          -1.1948    1.2074   46.0463 C.ar    1  UNL        -0.0221
     32 C          -1.7989    1.4045   47.2992 C.ar    1  UNL         0.0723
     33 CL         -2.9870    0.2418   47.8581 Cl      1  UNL        -0.0814
     34 CL          0.5117    1.8771   44.0141 Cl      1  UNL        -0.0843
     35 C         -10.0327    3.8253   52.5234 C.3     1  UNL        -0.0394
     36 H         -12.5029    5.6874   56.0412 H       1  UNL         0.0623
     37 H         -11.8796    5.4582   53.6556 H       1  UNL         0.0626
     38 H          -9.6266    2.6763   57.1030 H       1  UNL         0.0627
     39 H         -11.3694    4.2939   57.7645 H       1  UNL         0.0623
     40 H          -8.2729    1.6833   55.5144 H       1  UNL         0.0625
     41 H         -11.2598   -1.8112   53.8187 H       1  UNL         0.0627
     42 H         -10.4380   -1.9087   51.4586 H       1  UNL         0.0639
     43 H          -8.8241   -0.1497   50.6634 H       1  UNL         0.0840
     44 H          -9.7528    0.0874   56.4275 H       1  UNL         0.0280
     45 H         -11.1858   -0.8536   55.9980 H       1  UNL         0.0280
     46 H         -11.2363    0.9121   55.9041 H       1  UNL         0.0280
     47 H          -7.6396    2.9807   52.9317 H       1  UNL         0.1521
     48 H          -3.4311    3.0542   54.3538 H       1  UNL         0.0484
     49 H          -4.1042    4.4656   55.1862 H       1  UNL         0.0484
     50 H          -2.1711    4.9957   53.6454 H       1  UNL         0.0447
     51 H          -3.6430    5.9352   53.3778 H       1  UNL         0.0447
     52 H          -4.7026    4.2327   50.3481 H       1  UNL         0.0447
     53 H          -5.0788    5.4833   51.5293 H       1  UNL         0.0447
     54 H          -5.2387    2.4647   51.9368 H       1  UNL         0.0484
     55 H          -6.5557    3.6454   51.9567 H       1  UNL         0.0484
     56 H          -3.1021    2.4335   51.4468 H       1  UNL         0.0455
     57 H          -1.8260    3.0736   52.4900 H       1  UNL         0.0455
     58 H          -0.5090    3.0497   50.6579 H       1  UNL         0.0586
     59 H          -1.4130    4.4929   50.1099 H       1  UNL         0.0586
     60 H          -0.2052    4.3030   48.1947 H       1  UNL         0.0652
     61 H           0.8488    3.9444   45.9900 H       1  UNL         0.0639
     62 H          -1.4659    0.3463   45.4421 H       1  UNL         0.0655
     63 H         -10.5510    4.5890   51.9301 H       1  UNL         0.0280
     64 H         -10.3102    2.8472   52.1110 H       1  UNL         0.0280
     65 H          -8.9565    3.9701   52.3685 H       1  UNL         0.0280
@<TRIPOS>BOND
     1     1     2   ar
     2     1     6   ar
     3     1    36    1
     4     2     3   ar
     5     2    37    1
     6     3     4   ar
     7     3    35    1
     8     4     5   ar
     9     4     7    1
    10     5     6   ar
    11     5    38    1
    12     6    39    1
    13     7     8    1
    14     7    15    1
    15     7    40    1
    16     8     9   ar
    17     8    13   ar
    18     9    10   ar
    19     9    14    1
    20    10    11   ar
    21    10    41    1
    22    11    12   ar
    23    11    42    1
    24    12    13   ar
    25    12    43    1
    26    14    44    1
    27    14    45    1
    28    14    46    1
    29    15    16   am
    30    15    47    1
    31    16    17    2
    32    16    18   am
    33    18    19    1
    34    18    23    1
    35    19    20    1
    36    19    48    1
    37    19    49    1
    38    20    21    1
    39    20    50    1
    40    20    51    1
    41    21    22    1
    42    21    24    1
    43    22    23    1
    44    22    52    1
    45    22    53    1
    46    23    54    1
    47    23    55    1
    48    24    25    1
    49    24    56    1
    50    24    57    1
    51    25    26    1
    52    25    58    1
    53    25    59    1
    54    26    27    1
    55    27    28   ar
    56    27    32   ar
    57    28    29   ar
    58    28    60    1
    59    29    30   ar
    60    29    61    1
    61    30    31   ar
    62    30    34    1
    63    31    32   ar
    64    31    62    1
    65    32    33    1
    66    35    63    1
    67    35    64    1
    68    35    65    1
@<TRIPOS>SUBSTRUCTURE
     1 UNL         1 TEMP              0 ****  ****    0 ROOT


##########                                Name:    ZINC001109082135
##########                DOCK_Rotatable_Bonds:                   9
##########                         Heavy_Atoms:                  27
##########                    Molecular_Weight:             373.455
##########                DOCK_Rotatable_Bonds:                   9
##########                       Formal_Charge:          -0.0100003
##########                     HBond_Acceptors:                   8
##########                        HBond_Donors:                   3
##########                         Heavy_Atoms:                  27
##########                          Grid_Score:          -35.972786
##########                     Grid_vdw_energy:          -33.126137
##########                      Grid_es_energy:           -2.846648
##########           Internal_energy_repulsive:           22.982025

@<TRIPOS>MOLECULE
ZINC001109082135
 54 57 1 0 0
SMALL
USER_CHARGES


@<TRIPOS>ATOM
      1 C1         -3.3564    4.1484   54.7158 C.3     1  ZINC001109082135   -0.1400
      2 C2         -2.6548    5.0836   53.7289 C.3     1  ZINC001109082135   -0.1400
      3 C3         -3.0205    4.6930   52.3201 C.2     1  ZINC001109082135    0.5100
      4 O4         -3.1849    5.5490   51.4768 O.2     1  ZINC001109082135   -0.5400
      5 N5         -3.1648    3.3925   51.9973 N.am    1  ZINC001109082135   -0.7200
      6 C6         -3.5220    3.0128   50.6281 C.3     1  ZINC001109082135    0.1000
      7 C7         -2.2671    2.8249   49.8153 C.2     1  ZINC001109082135    0.5100
      8 O8         -1.2535    3.4178   50.1188 O.2     1  ZINC001109082135   -0.5300
      9 N9         -2.2711    1.9980   48.7510 N.am    1  ZINC001109082135   -0.7100
     10 C10        -1.0505    1.8140   47.9618 C.3     1  ZINC001109082135    0.1100
     11 H11        -0.4467    2.7214   47.9740 H       1  ZINC001109082135    0.0900
     12 C12        -0.2351    0.6094   48.4921 C.3     1  ZINC001109082135   -0.1600
     13 C13        -0.2001   -0.3691   47.2794 C.3     1  ZINC001109082135    0.0600
     14 H14         0.6011   -1.1079   47.2939 H       1  ZINC001109082135    0.1300
     15 C15        -1.6451   -0.9450   47.1831 C.3     1  ZINC001109082135   -0.1200
     16 C16        -2.4772    0.2510   46.6592 C.3     1  ZINC001109082135   -0.1100
     17 C17        -1.3995    1.4067   46.4985 C.3     1  ZINC001109082135    0.0400
     18 H18        -1.6739    2.2152   45.8209 H       1  ZINC001109082135    0.1200
     19 N19        -0.1794    0.6010   46.1271 N.3     1  ZINC001109082135   -0.4800
     20 C20         1.0288    1.4364   46.1460 C.3     1  ZINC001109082135    0.0800
     21 C21         0.9438    2.4674   45.0501 C.2     1  ZINC001109082135    0.2000
     22 C22         0.7133    2.0794   43.7651 C.2     1  ZINC001109082135   -0.2900
     23 C23         0.6391    3.0698   42.7640 C.2     1  ZINC001109082135    0.5200
     24 O24         0.4337    2.7656   41.6007 O.2     1  ZINC001109082135   -0.5400
     25 N25         0.7997    4.3621   43.1207 N.am    1  ZINC001109082135   -0.6300
     26 C26         1.0253    4.6803   44.4106 C.2     1  ZINC001109082135    0.4300
     27 C27         1.2024    6.1274   44.7920 C.3     1  ZINC001109082135   -0.1400
     28 C28         2.6322    6.6386   44.9798 C.3     1  ZINC001109082135   -0.1400
     29 C29         1.8238    7.0612   43.7514 C.3     1  ZINC001109082135   -0.1400
     30 N30         1.0890    3.7631   45.3386 N.2     1  ZINC001109082135   -0.5300
     31 H31        -3.0414    3.1216   54.5301 H       1  ZINC001109082135    0.0600
     32 H32        -3.0919    4.4310   55.7348 H       1  ZINC001109082135    0.0600
     33 H33        -4.4358    4.2264   54.5858 H       1  ZINC001109082135    0.0600
     34 H34        -2.9699    6.1105   53.9147 H       1  ZINC001109082135    0.1000
     35 H35        -1.5754    5.0056   53.8590 H       1  ZINC001109082135    0.1000
     36 H36        -3.0321    2.7078   52.6715 H       1  ZINC001109082135    0.4100
     37 H37        -4.0869    2.0806   50.6452 H       1  ZINC001109082135    0.1000
     38 H38        -4.1308    3.7983   50.1804 H       1  ZINC001109082135    0.1000
     39 H39        -3.0820    1.5248   48.5075 H       1  ZINC001109082135    0.4000
     40 H40         0.7739    0.9190   48.7645 H       1  ZINC001109082135    0.0800
     41 H41        -0.7390    0.1492   49.3421 H       1  ZINC001109082135    0.0800
     42 H42        -1.6808   -1.7754   46.4779 H       1  ZINC001109082135    0.0700
     43 H43        -1.9996   -1.2584   48.1650 H       1  ZINC001109082135    0.0700
     44 H44        -2.9255    0.0134   45.6945 H       1  ZINC001109082135    0.0700
     45 H45        -3.2442    0.5305   47.3815 H       1  ZINC001109082135    0.0700
     46 H46         1.1091    1.9374   47.1107 H       1  ZINC001109082135    0.1000
     47 H47         1.9064    0.8096   45.9879 H       1  ZINC001109082135    0.0700
     48 H48         0.5902    1.0353   43.5180 H       1  ZINC001109082135    0.1600
     49 H49         0.7530    5.0607   42.4492 H       1  ZINC001109082135    0.4200
     50 H50         0.4306    6.5402   45.4416 H       1  ZINC001109082135    0.1300
     51 H51         2.8013    7.3878   45.7532 H       1  ZINC001109082135    0.1100
     52 H52         3.4447    5.9281   44.8275 H       1  ZINC001109082135    0.1100
     53 H53         2.1045    6.6289   42.7910 H       1  ZINC001109082135    0.1100
     54 H54         1.4611    8.0885   43.7168 H       1  ZINC001109082135    0.1100
@<TRIPOS>BOND
     1     1     2    1
     2     1    31    1
     3     1    32    1
     4     1    33    1
     5     2     3    1
     6     2    34    1
     7     2    35    1
     8     3     4    2
     9     3     5   am
    10     5     6    1
    11     5    36    1
    12     6     7    1
    13     6    37    1
    14     6    38    1
    15     7     8    2
    16     7     9   am
    17     9    10    1
    18     9    39    1
    19    10    11    1
    20    10    17    1
    21    10    12    1
    22    12    13    1
    23    12    40    1
    24    12    41    1
    25    13    14    1
    26    13    19    1
    27    13    15    1
    28    15    16    1
    29    15    42    1
    30    15    43    1
    31    16    17    1
    32    16    44    1
    33    16    45    1
    34    17    18    1
    35    17    19    1
    36    19    20    1
    37    20    21    1
    38    20    46    1
    39    20    47    1
    40    21    30    1
    41    21    22    2
    42    22    23    1
    43    22    48    1
    44    23    24    2
    45    23    25   am
    46    25    26    1
    47    25    49    1
    48    26    27    1
    49    26    30    2
    50    27    29    1
    51    27    28    1
    52    27    50    1
    53    28    29    1
    54    28    51    1
    55    28    52    1
    56    29    53    1
    57    29    54    1
@<TRIPOS>SUBSTRUCTURE
     1 ZINC001109082135        1 TEMP              0 ****  ****    0 ROOT


##########                                Name:    ZINC000011620562
##########                DOCK_Rotatable_Bonds:                   9
##########                         Heavy_Atoms:                  29
##########                    Molecular_Weight:             417.448
##########                DOCK_Rotatable_Bonds:                   9
##########                       Formal_Charge:           0.0299999
##########                     HBond_Acceptors:                  12
##########                        HBond_Donors:                   1
##########                         Heavy_Atoms:                  29
##########                          Grid_Score:          -35.957272
##########                     Grid_vdw_energy:          -33.158463
##########                      Grid_es_energy:           -2.798810
##########           Internal_energy_repulsive:            5.157333

@<TRIPOS>MOLECULE
ZINC000011620562
 48 50 1 0 0
SMALL
USER_CHARGES


@<TRIPOS>ATOM
      1 C1         -9.4739   -0.1981   51.5450 C.3     1  ZINC000011620562    0.0400
      2 O2         -9.6244   -1.0680   52.6977 O.3     1  ZINC000011620562   -0.3500
      3 C3        -10.6663   -1.9144   52.6906 C.2     1  ZINC000011620562    0.4600
      4 O4        -11.4119   -1.9466   51.7405 O.2     1  ZINC000011620562   -0.5000
      5 C5        -10.9057   -2.8246   53.8675 C.3     1  ZINC000011620562    0.1300
      6 N6        -11.7101   -2.1234   54.8713 N.am    1  ZINC000011620562   -0.7200
      7 C7        -12.3492   -2.8219   55.8307 C.2     1  ZINC000011620562    0.5400
      8 O8        -12.2571   -4.0308   55.8637 O.2     1  ZINC000011620562   -0.5200
      9 C9        -13.1781   -2.1008   56.8621 C.3     1  ZINC000011620562   -0.1600
     10 S10       -13.0083   -2.9319   58.4609 S.3     1  ZINC000011620562    0.1400
     11 C11       -13.7660   -1.7356   59.5096 C.2     1  ZINC000011620562    0.2100
     12 N12       -15.0480   -1.6426   59.7915 N.2     1  ZINC000011620562   -0.3400
     13 N13       -15.2630   -0.6587   60.5881 N.2     1  ZINC000011620562   -0.0300
     14 N14       -14.1570   -0.0598   60.8705 N.2     1  ZINC000011620562   -0.0800
     15 N15       -13.1375   -0.7411   60.1828 N.pl3   1  ZINC000011620562   -0.2600
     16 C16       -11.7601   -0.4487   60.1869 C.2     1  ZINC000011620562   -0.1300
     17 C17       -10.8123   -1.0940   60.9040 C.2     1  ZINC000011620562    0.2500
     18 C18       -11.0495   -2.2521   61.8385 C.3     1  ZINC000011620562   -0.1100
     19 N19        -9.6008   -0.5158   60.6361 N.pl3   1  ZINC000011620562   -0.3700
     20 C20        -8.3130   -0.9167   61.2080 C.3     1  ZINC000011620562    0.0900
     21 N21        -9.8042    0.5248   59.7205 N.am    1  ZINC000011620562   -0.3600
     22 C22        -8.8168    1.3627   59.1927 C.ar    1  ZINC000011620562    0.1400
     23 C23        -8.4305    2.5041   59.8836 C.ar    1  ZINC000011620562   -0.1300
     24 C24        -7.4546    3.3292   59.3599 C.ar    1  ZINC000011620562   -0.1000
     25 C25        -6.8623    3.0201   58.1491 C.ar    1  ZINC000011620562   -0.1100
     26 C26        -7.2449    1.8847   57.4586 C.ar    1  ZINC000011620562   -0.1000
     27 C27        -8.2161    1.0523   57.9795 C.ar    1  ZINC000011620562   -0.1000
     28 C28       -11.1213    0.5709   59.4347 C.2     1  ZINC000011620562    0.5500
     29 O29       -11.6652    1.3512   58.6744 O.2     1  ZINC000011620562   -0.5000
     30 H30       -10.3601    0.4288   51.4446 H       1  ZINC000011620562    0.0700
     31 H31        -8.5955    0.4332   51.6784 H       1  ZINC000011620562    0.1100
     32 H32        -9.3534   -0.8033   50.6464 H       1  ZINC000011620562    0.0700
     33 H33       -11.4366   -3.7166   53.5350 H       1  ZINC000011620562    0.1200
     34 H34        -9.9496   -3.1126   54.3046 H       1  ZINC000011620562    0.1200
     35 H35       -11.7827   -1.1565   54.8455 H       1  ZINC000011620562    0.4200
     36 H36       -12.8332   -1.0705   56.9497 H       1  ZINC000011620562    0.1400
     37 H37       -14.2247   -2.1090   56.5576 H       1  ZINC000011620562    0.1400
     38 H38       -12.1117   -2.4964   61.8523 H       1  ZINC000011620562    0.1000
     39 H39       -10.4821   -3.1175   61.4961 H       1  ZINC000011620562    0.1000
     40 H40       -10.7262   -1.9802   62.8433 H       1  ZINC000011620562    0.1000
     41 H41        -8.4674   -1.7318   61.9150 H       1  ZINC000011620562    0.1100
     42 H42        -7.6487   -1.2488   60.4101 H       1  ZINC000011620562    0.0900
     43 H43        -7.8648   -0.0678   61.7243 H       1  ZINC000011620562    0.0900
     44 H44        -8.8930    2.7463   60.8290 H       1  ZINC000011620562    0.1300
     45 H45        -7.1541    4.2171   59.8964 H       1  ZINC000011620562    0.1300
     46 H46        -6.0994    3.6670   57.7419 H       1  ZINC000011620562    0.1300
     47 H47        -6.7808    1.6465   56.5130 H       1  ZINC000011620562    0.1400
     48 H48        -8.5142    0.1656   57.4399 H       1  ZINC000011620562    0.1400
@<TRIPOS>BOND
     1     1     2    1
     2     1    30    1
     3     1    31    1
     4     1    32    1
     5     2     3    1
     6     3     4    2
     7     3     5    1
     8     5     6    1
     9     5    33    1
    10     5    34    1
    11     6     7   am
    12     6    35    1
    13     7     8    2
    14     7     9    1
    15     9    10    1
    16     9    36    1
    17     9    37    1
    18    10    11    1
    19    11    15    1
    20    11    12    2
    21    12    13    1
    22    13    14    2
    23    14    15    1
    24    15    16    1
    25    16    28    1
    26    16    17    2
    27    17    18    1
    28    17    19    1
    29    18    38    1
    30    18    39    1
    31    18    40    1
    32    19    20    1
    33    19    21    1
    34    20    41    1
    35    20    42    1
    36    20    43    1
    37    21    22    1
    38    21    28   am
    39    22    27   ar
    40    22    23   ar
    41    23    24   ar
    42    23    44    1
    43    24    25   ar
    44    24    45    1
    45    25    26   ar
    46    25    46    1
    47    26    27   ar
    48    26    47    1
    49    27    48    1
    50    28    29    2
@<TRIPOS>SUBSTRUCTURE
     1 ZINC000011620562        1 TEMP              0 ****  ****    0 ROOT


##########                                Name:    ZINC000533131987
##########                DOCK_Rotatable_Bonds:                  11
##########                         Heavy_Atoms:                  30
##########                    Molecular_Weight:             419.403
##########                DOCK_Rotatable_Bonds:                  11
##########                       Formal_Charge:                0.01
##########                     HBond_Acceptors:                   9
##########                        HBond_Donors:                   3
##########                         Heavy_Atoms:                  30
##########                          Grid_Score:          -35.915878
##########                     Grid_vdw_energy:          -33.683254
##########                      Grid_es_energy:           -2.232624
##########           Internal_energy_repulsive:           28.320601

@<TRIPOS>MOLECULE
ZINC000533131987
 50 52 1 0 0
SMALL
USER_CHARGES


@<TRIPOS>ATOM
      1 O1         -1.7832    3.3602   52.2438 O.2     1  ZINC000533131987   -0.5700
      2 C2         -2.9322    3.6588   51.9810 C.2     1  ZINC000533131987    0.7100
      3 N3         -3.7656    4.0593   52.9615 N.am    1  ZINC000533131987   -0.7400
      4 C4         -3.2888    4.1293   54.3449 C.3     1  ZINC000533131987    0.1400
      5 C5         -4.2625    3.3820   55.2584 C.3     1  ZINC000533131987   -0.0900
      6 H6         -4.7404    2.5774   54.6993 H       1  ZINC000533131987    0.0900
      7 C7         -3.4982    2.7939   56.4461 C.3     1  ZINC000533131987    0.0800
      8 O8         -4.0474    1.5179   56.7812 O.3     1  ZINC000533131987   -0.5600
      9 C9         -5.3299    4.3523   55.7687 C.3     1  ZINC000533131987   -0.0900
     10 C10        -6.1789    3.6645   56.8066 C.ar    1  ZINC000533131987    0.0000
     11 C11        -6.7946    2.4631   56.5102 C.ar    1  ZINC000533131987   -0.1100
     12 C12        -7.5735    1.8322   57.4624 C.ar    1  ZINC000533131987   -0.0800
     13 C13        -7.7361    2.4026   58.7108 C.ar    1  ZINC000533131987   -0.1300
     14 C14        -7.1196    3.6040   59.0075 C.ar    1  ZINC000533131987   -0.0700
     15 C15        -6.3374    4.2326   58.0571 C.ar    1  ZINC000533131987   -0.1700
     16 C16        -5.6653    5.5421   58.3805 C.3     1  ZINC000533131987    0.5100
     17 F17        -6.0832    6.5183   57.4698 F       1  ZINC000533131987   -0.1800
     18 F18        -6.0112    5.9360   59.6776 F       1  ZINC000533131987   -0.1700
     19 F19        -4.2775    5.3876   58.2946 F       1  ZINC000533131987   -0.1800
     20 N20        -3.3708    3.5944   50.7082 N.am    1  ZINC000533131987   -0.6900
     21 C21        -2.5053    3.1785   49.6899 C.ar    1  ZINC000533131987    0.1600
     22 C22        -1.5385    4.0487   49.2013 C.ar    1  ZINC000533131987   -0.1000
     23 C23        -0.6812    3.6427   48.1954 C.ar    1  ZINC000533131987   -0.1000
     24 C24        -0.7799    2.3706   47.6702 C.ar    1  ZINC000533131987   -0.1000
     25 C25        -1.7481    1.4888   48.1543 C.ar    1  ZINC000533131987    0.0000
     26 C26        -1.8558    0.1250   47.5937 C.2     1  ZINC000533131987    0.2300
     27 N27        -1.5933   -0.9897   48.2343 N.2     1  ZINC000533131987   -0.4700
     28 C28        -1.8053   -2.0218   47.4039 C.2     1  ZINC000533131987   -0.0400
     29 C29        -2.2090   -1.5230   46.2212 C.2     1  ZINC000533131987   -0.0700
     30 O30        -2.2446   -0.1814   46.3438 O.3     1  ZINC000533131987   -0.2000
     31 C31        -2.6090    1.8964   49.1727 C.ar    1  ZINC000533131987   -0.1000
     32 H32        -4.6811    4.3012   52.7512 H       1  ZINC000533131987    0.4000
     33 H33        -2.3023    3.6707   54.4129 H       1  ZINC000533131987    0.0700
     34 H34        -3.2268    5.1723   54.6557 H       1  ZINC000533131987    0.0800
     35 H35        -2.4473    2.6788   56.1809 H       1  ZINC000533131987    0.0400
     36 H36        -3.5858    3.4632   57.3019 H       1  ZINC000533131987    0.0600
     37 H37        -3.5374    1.0318   57.4437 H       1  ZINC000533131987    0.3800
     38 H38        -4.8470    5.2227   56.2129 H       1  ZINC000533131987    0.0800
     39 H39        -5.9589    4.6705   54.9373 H       1  ZINC000533131987    0.0900
     40 H40        -6.6674    2.0174   55.5347 H       1  ZINC000533131987    0.1300
     41 H41        -8.0551    0.8937   57.2306 H       1  ZINC000533131987    0.1300
     42 H42        -8.3452    1.9101   59.4544 H       1  ZINC000533131987    0.1300
     43 H43        -7.2469    4.0499   59.9829 H       1  ZINC000533131987    0.1300
     44 H44        -4.2863    3.8364   50.4978 H       1  ZINC000533131987    0.4100
     45 H45        -1.4567    5.0457   49.6084 H       1  ZINC000533131987    0.1500
     46 H46         0.0680    4.3235   47.8195 H       1  ZINC000533131987    0.1400
     47 H47        -0.1087    2.0573   46.8843 H       1  ZINC000533131987    0.1300
     48 H48        -1.6749   -3.0671   47.6422 H       1  ZINC000533131987    0.1900
     49 H49        -2.4615   -2.0923   45.3388 H       1  ZINC000533131987    0.2200
     50 H50        -3.3597    1.2186   49.5513 H       1  ZINC000533131987    0.1400
@<TRIPOS>BOND
     1     1     2    2
     2     2     3   am
     3     2    20   am
     4     3     4    1
     5     3    32    1
     6     4     5    1
     7     4    33    1
     8     4    34    1
     9     5     6    1
    10     5     7    1
    11     5     9    1
    12     7     8    1
    13     7    35    1
    14     7    36    1
    15     8    37    1
    16     9    10    1
    17     9    38    1
    18     9    39    1
    19    10    15   ar
    20    10    11   ar
    21    11    12   ar
    22    11    40    1
    23    12    13   ar
    24    12    41    1
    25    13    14   ar
    26    13    42    1
    27    14    15   ar
    28    14    43    1
    29    15    16    1
    30    16    17    1
    31    16    18    1
    32    16    19    1
    33    20    21    1
    34    20    44    1
    35    21    31   ar
    36    21    22   ar
    37    22    23   ar
    38    22    45    1
    39    23    24   ar
    40    23    46    1
    41    24    25   ar
    42    24    47    1
    43    25    26    1
    44    25    31   ar
    45    26    30    1
    46    26    27    2
    47    27    28    1
    48    28    29    2
    49    28    48    1
    50    29    30    1
    51    29    49    1
    52    31    50    1
@<TRIPOS>SUBSTRUCTURE
     1 ZINC000533131987        1 TEMP              0 ****  ****    0 ROOT


##########                                Name:    ZINC000465642058
##########                DOCK_Rotatable_Bonds:                  10
##########                         Heavy_Atoms:                  31
##########                    Molecular_Weight:             420.511
##########                DOCK_Rotatable_Bonds:                  10
##########                       Formal_Charge:          1.2666e-07
##########                     HBond_Acceptors:                   7
##########                        HBond_Donors:                   2
##########                         Heavy_Atoms:                  31
##########                          Grid_Score:          -35.863354
##########                     Grid_vdw_energy:          -34.772766
##########                      Grid_es_energy:           -1.090586
##########           Internal_energy_repulsive:           15.166547

@<TRIPOS>MOLECULE
ZINC000465642058
 59 62 1 0 0
SMALL
USER_CHARGES


@<TRIPOS>ATOM
      1 C1         -1.1861   -1.3536   47.6281 C.3     1  ZINC000465642058   -0.1500
      2 C2         -2.4161   -1.0727   46.7624 C.3     1  ZINC000465642058    0.0500
      3 O3         -2.6839    0.3309   46.7567 O.3     1  ZINC000465642058   -0.3000
      4 C4         -1.6771    1.1499   46.3508 C.ar    1  ZINC000465642058    0.1200
      5 C5         -1.1674    1.0439   45.0644 C.ar    1  ZINC000465642058   -0.1600
      6 C6         -0.1484    1.8769   44.6581 C.ar    1  ZINC000465642058   -0.1300
      7 C7          0.3764    2.8319   45.5186 C.ar    1  ZINC000465642058    0.0700
      8 C8         -0.1360    2.9304   46.8099 C.ar    1  ZINC000465642058   -0.0700
      9 C9         -1.1581    2.0997   47.2185 C.ar    1  ZINC000465642058   -0.1100
     10 C10        -1.7051    2.2157   48.6179 C.3     1  ZINC000465642058    0.1900
     11 N11        -1.6670    3.6173   49.0425 N.am    1  ZINC000465642058   -0.7300
     12 C12        -2.5436    4.0669   49.9622 C.2     1  ZINC000465642058    0.7100
     13 O13        -3.3670    3.3095   50.4384 O.2     1  ZINC000465642058   -0.5900
     14 N14        -2.5075    5.3559   50.3540 N.am    1  ZINC000465642058   -0.6200
     15 C15        -1.5141    6.2679   49.7815 C.3     1  ZINC000465642058    0.1900
     16 C16        -1.9922    6.7513   48.4366 C.2     1  ZINC000465642058    0.0500
     17 N17        -1.2367    6.9997   47.3976 N.2     1  ZINC000465642058   -0.2700
     18 N18        -2.0614    7.4263   46.3487 N.pl3   1  ZINC000465642058   -0.4700
     19 C19        -3.3350    7.4248   46.7948 C.2     1  ZINC000465642058    0.0600
     20 C20        -3.3209    7.0060   48.0815 C.2     1  ZINC000465642058   -0.2600
     21 C21        -3.4615    5.8451   51.3524 C.3     1  ZINC000465642058    0.1700
     22 C22        -2.9756    5.4816   52.7318 C.ar    1  ZINC000465642058   -0.1100
     23 C23        -3.3451    4.2766   53.2995 C.ar    1  ZINC000465642058   -0.0900
     24 C24        -2.8994    3.9432   54.5648 C.ar    1  ZINC000465642058   -0.1200
     25 C25        -2.0840    4.8147   55.2624 C.ar    1  ZINC000465642058   -0.1200
     26 C26        -1.7139    6.0193   54.6943 C.ar    1  ZINC000465642058   -0.1300
     27 C27        -2.1560    6.3508   53.4273 C.ar    1  ZINC000465642058   -0.1100
     28 O28         1.3548    3.5590   44.9102 O.3     1  ZINC000465642058   -0.3000
     29 C29         1.8373    2.8374   43.7642 C.3     1  ZINC000465642058    0.0800
     30 H30         2.6737    2.1939   44.0371 H       1  ZINC000465642058    0.0900
     31 C31         2.2400    3.8016   42.6466 C.3     1  ZINC000465642058   -0.1500
     32 C32         0.6090    1.9934   43.3493 C.3     1  ZINC000465642058   -0.1100
     33 H33        -1.3741   -1.0154   48.6471 H       1  ZINC000465642058    0.0700
     34 H34        -0.9818   -2.4242   47.6324 H       1  ZINC000465642058    0.0800
     35 H35        -0.3263   -0.8212   47.2214 H       1  ZINC000465642058    0.0700
     36 H36        -2.2280   -1.4108   45.7433 H       1  ZINC000465642058    0.0600
     37 H37        -3.2759   -1.6050   47.1691 H       1  ZINC000465642058    0.0600
     38 H38        -1.5690    0.3088   44.3827 H       1  ZINC000465642058    0.1300
     39 H39         0.2662    3.6638   47.4932 H       1  ZINC000465642058    0.1400
     40 H40        -2.7346    1.8583   48.6364 H       1  ZINC000465642058    0.0700
     41 H41        -1.0995    1.6141   49.2957 H       1  ZINC000465642058    0.0800
     42 H42        -1.0108    4.2217   48.6617 H       1  ZINC000465642058    0.4000
     43 H43        -1.3779    7.1206   50.4466 H       1  ZINC000465642058    0.1000
     44 H44        -0.5656    5.7441   49.6632 H       1  ZINC000465642058    0.0900
     45 H45        -1.7687    7.6783   45.4590 H       1  ZINC000465642058    0.4400
     46 H46        -4.2095    7.7037   46.2255 H       1  ZINC000465642058    0.1800
     47 H47        -4.1827    6.8944   48.7229 H       1  ZINC000465642058    0.1500
     48 H48        -3.5485    6.9286   51.2716 H       1  ZINC000465642058    0.0900
     49 H49        -4.4358    5.3884   51.1783 H       1  ZINC000465642058    0.0900
     50 H50        -3.9822    3.5958   52.7546 H       1  ZINC000465642058    0.1300
     51 H51        -3.1887    3.0021   55.0087 H       1  ZINC000465642058    0.1200
     52 H52        -1.7364    4.5545   56.2512 H       1  ZINC000465642058    0.1200
     53 H53        -1.0770    6.7003   55.2393 H       1  ZINC000465642058    0.1200
     54 H54        -1.8668    7.2919   52.9834 H       1  ZINC000465642058    0.1200
     55 H55         3.0471    4.4456   42.9956 H       1  ZINC000465642058    0.0700
     56 H56         2.5775    3.2328   41.7802 H       1  ZINC000465642058    0.0800
     57 H57         1.3819    4.4133   42.3678 H       1  ZINC000465642058    0.0700
     58 H58         0.9151    1.0117   42.9877 H       1  ZINC000465642058    0.0900
     59 H59         0.0135    2.5145   42.5997 H       1  ZINC000465642058    0.1000
@<TRIPOS>BOND
     1     1     2    1
     2     1    33    1
     3     1    34    1
     4     1    35    1
     5     2     3    1
     6     2    36    1
     7     2    37    1
     8     3     4    1
     9     4     9   ar
    10     4     5   ar
    11     5     6   ar
    12     5    38    1
    13     6    32    1
    14     6     7   ar
    15     7     8   ar
    16     7    28    1
    17     8     9   ar
    18     8    39    1
    19     9    10    1
    20    10    11    1
    21    10    40    1
    22    10    41    1
    23    11    12   am
    24    11    42    1
    25    12    13    2
    26    12    14   am
    27    14    15    1
    28    14    21    1
    29    15    16    1
    30    15    43    1
    31    15    44    1
    32    16    20    1
    33    16    17    2
    34    17    18    1
    35    18    19    1
    36    18    45    1
    37    19    20    2
    38    19    46    1
    39    20    47    1
    40    21    22    1
    41    21    48    1
    42    21    49    1
    43    22    27   ar
    44    22    23   ar
    45    23    24   ar
    46    23    50    1
    47    24    25   ar
    48    24    51    1
    49    25    26   ar
    50    25    52    1
    51    26    27   ar
    52    26    53    1
    53    27    54    1
    54    28    29    1
    55    29    30    1
    56    29    31    1
    57    29    32    1
    58    31    55    1
    59    31    56    1
    60    31    57    1
    61    32    58    1
    62    32    59    1
@<TRIPOS>SUBSTRUCTURE
     1 ZINC000465642058        1 TEMP              0 ****  ****    0 ROOT


##########                                Name:    ZINC000464139057
##########                DOCK_Rotatable_Bonds:                   9
##########                         Heavy_Atoms:                  30
##########                    Molecular_Weight:              413.56
##########                DOCK_Rotatable_Bonds:                   9
##########                       Formal_Charge:         2.38419e-07
##########                     HBond_Acceptors:                   6
##########                        HBond_Donors:                   2
##########                         Heavy_Atoms:                  30
##########                          Grid_Score:          -35.863247
##########                     Grid_vdw_energy:          -36.149277
##########                      Grid_es_energy:            0.286028
##########           Internal_energy_repulsive:           15.351392

@<TRIPOS>MOLECULE
ZINC000464139057
 65 67 1 0 0
SMALL
USER_CHARGES


@<TRIPOS>ATOM
      1 C1        -14.7688   -1.0294   60.2581 C.3     1  ZINC000464139057   -0.1800
      2 C2        -14.2077   -2.3808   60.7049 C.3     1  ZINC000464139057    0.0700
      3 H3        -14.6877   -2.6846   61.6352 H       1  ZINC000464139057    0.1200
      4 C4        -14.4789   -3.4313   59.6219 C.3     1  ZINC000464139057    0.0800
      5 N5        -13.6722   -3.0960   58.4378 N.am    1  ZINC000464139057   -0.6100
      6 C6        -14.2324   -3.0256   57.2140 C.2     1  ZINC000464139057    0.5600
      7 O7        -15.4207   -3.2405   57.0762 O.2     1  ZINC000464139057   -0.5300
      8 C8        -13.4014   -2.6868   56.0390 C.ar    1  ZINC000464139057   -0.1200
      9 C9        -12.5258   -3.6327   55.5035 C.ar    1  ZINC000464139057   -0.0900
     10 C10       -11.7535   -3.3103   54.4068 C.ar    1  ZINC000464139057   -0.1000
     11 C11       -11.8452   -2.0523   53.8381 C.ar    1  ZINC000464139057   -0.0900
     12 C12       -10.9981   -1.7071   52.6404 C.3     1  ZINC000464139057    0.1800
     13 N13        -9.8004   -0.9875   53.0805 N.am    1  ZINC000464139057   -0.7400
     14 C14        -9.6294    0.3061   52.7432 C.2     1  ZINC000464139057    0.7000
     15 O15       -10.4700    0.8764   52.0750 O.2     1  ZINC000464139057   -0.5900
     16 N16        -8.5267    0.9676   53.1468 N.am    1  ZINC000464139057   -0.7500
     17 C17        -8.3400    2.3733   52.7787 C.3     1  ZINC000464139057    0.1400
     18 C18        -8.8159    3.2682   53.9248 C.3     1  ZINC000464139057   -0.0900
     19 C19        -7.7645    3.3044   55.0038 C.2     1  ZINC000464139057   -0.1200
     20 C20        -7.5522    2.2544   55.7319 C.2     1  ZINC000464139057   -0.1500
     21 C21        -6.4991    2.2773   56.8190 C.3     1  ZINC000464139057   -0.0900
     22 C22        -5.1175    2.2747   56.1611 C.3     1  ZINC000464139057   -0.1100
     23 C23        -4.6851    3.6878   55.8122 C.3     1  ZINC000464139057   -0.1200
     24 C24        -5.5335    4.3349   54.7318 C.3     1  ZINC000464139057   -0.1100
     25 C25        -6.9577    4.5657   55.2266 C.3     1  ZINC000464139057   -0.0800
     26 C26       -12.7114   -1.1102   54.3637 C.ar    1  ZINC000464139057   -0.1000
     27 C27       -13.4932   -1.4215   55.4569 C.ar    1  ZINC000464139057   -0.0700
     28 C28       -12.2359   -2.8395   58.6294 C.3     1  ZINC000464139057    0.0700
     29 C29       -12.0740   -1.8179   59.7607 C.3     1  ZINC000464139057    0.0700
     30 H30       -12.4660   -0.8531   59.4389 H       1  ZINC000464139057    0.0700
     31 C31       -10.5918   -1.6756   60.1125 C.3     1  ZINC000464139057   -0.1500
     32 O32       -12.7974   -2.2679   60.9100 O.3     1  ZINC000464139057   -0.3700
     33 H33       -14.2884   -0.7262   59.3277 H       1  ZINC000464139057    0.0600
     34 H34       -15.8439   -1.1166   60.1003 H       1  ZINC000464139057    0.0700
     35 H35       -14.5740   -0.2826   61.0278 H       1  ZINC000464139057    0.0700
     36 H36       -14.1987   -4.4184   59.9896 H       1  ZINC000464139057    0.0800
     37 H37       -15.5369   -3.4234   59.3596 H       1  ZINC000464139057    0.1000
     38 H38       -12.4528   -4.6147   55.9470 H       1  ZINC000464139057    0.1300
     39 H39       -11.0756   -4.0413   53.9915 H       1  ZINC000464139057    0.1300
     40 H40       -10.7039   -2.6227   52.1273 H       1  ZINC000464139057    0.0800
     41 H41       -11.5708   -1.0771   51.9597 H       1  ZINC000464139057    0.0800
     42 H42        -9.1303   -1.4421   53.6147 H       1  ZINC000464139057    0.4000
     43 H43        -7.8566    0.5130   53.6809 H       1  ZINC000464139057    0.4000
     44 H44        -7.2838    2.5612   52.5857 H       1  ZINC000464139057    0.0700
     45 H45        -8.9182    2.5939   51.8814 H       1  ZINC000464139057    0.0700
     46 H46        -8.9873    4.2775   53.5506 H       1  ZINC000464139057    0.0700
     47 H47        -9.7440    2.8703   54.3352 H       1  ZINC000464139057    0.0800
     48 H48        -8.1300    1.3577   55.5627 H       1  ZINC000464139057    0.1100
     49 H49        -6.6155    3.1777   57.4222 H       1  ZINC000464139057    0.0700
     50 H50        -6.6056    1.3950   57.4501 H       1  ZINC000464139057    0.0700
     51 H51        -4.3935    1.8373   56.8485 H       1  ZINC000464139057    0.0600
     52 H52        -5.1546    1.6758   55.2511 H       1  ZINC000464139057    0.0600
     53 H53        -4.7392    4.3010   56.7118 H       1  ZINC000464139057    0.0600
     54 H54        -3.6494    3.6618   55.4734 H       1  ZINC000464139057    0.0600
     55 H55        -5.0907    5.2910   54.4524 H       1  ZINC000464139057    0.0600
     56 H56        -5.5598    3.6836   53.8581 H       1  ZINC000464139057    0.0600
     57 H57        -7.4082    5.3899   54.6735 H       1  ZINC000464139057    0.0700
     58 H58        -6.9417    4.8015   56.2908 H       1  ZINC000464139057    0.0700
     59 H59       -12.7785   -0.1301   53.9148 H       1  ZINC000464139057    0.1300
     60 H60       -14.1692   -0.6853   55.8661 H       1  ZINC000464139057    0.1300
     61 H61       -11.7299   -3.7671   58.8971 H       1  ZINC000464139057    0.0800
     62 H62       -11.8086   -2.4398   57.7098 H       1  ZINC000464139057    0.1000
     63 H63       -10.0411   -1.3361   59.2353 H       1  ZINC000464139057    0.0800
     64 H64       -10.4774   -0.9491   60.9170 H       1  ZINC000464139057    0.0700
     65 H65       -10.2009   -2.6403   60.4359 H       1  ZINC000464139057    0.0700
@<TRIPOS>BOND
     1     1     2    1
     2     1    33    1
     3     1    34    1
     4     1    35    1
     5     2     3    1
     6     2    32    1
     7     2     4    1
     8     4     5    1
     9     4    36    1
    10     4    37    1
    11     5     6   am
    12     5    28    1
    13     6     7    2
    14     6     8    1
    15     8    27   ar
    16     8     9   ar
    17     9    10   ar
    18     9    38    1
    19    10    11   ar
    20    10    39    1
    21    11    12    1
    22    11    26   ar
    23    12    13    1
    24    12    40    1
    25    12    41    1
    26    13    14   am
    27    13    42    1
    28    14    15    2
    29    14    16   am
    30    16    17    1
    31    16    43    1
    32    17    18    1
    33    17    44    1
    34    17    45    1
    35    18    19    1
    36    18    46    1
    37    18    47    1
    38    19    25    1
    39    19    20    2
    40    20    21    1
    41    20    48    1
    42    21    22    1
    43    21    49    1
    44    21    50    1
    45    22    23    1
    46    22    51    1
    47    22    52    1
    48    23    24    1
    49    23    53    1
    50    23    54    1
    51    24    25    1
    52    24    55    1
    53    24    56    1
    54    25    57    1
    55    25    58    1
    56    26    27   ar
    57    26    59    1
    58    27    60    1
    59    28    29    1
    60    28    61    1
    61    28    62    1
    62    29    30    1
    63    29    31    1
    64    29    32    1
    65    31    63    1
    66    31    64    1
    67    31    65    1
@<TRIPOS>SUBSTRUCTURE
     1 ZINC000464139057        1 TEMP              0 ****  ****    0 ROOT


##########                                Name:    ZINC000442010511
##########                DOCK_Rotatable_Bonds:                  11
##########                         Heavy_Atoms:                  31
##########                    Molecular_Weight:             422.481
##########                DOCK_Rotatable_Bonds:                  11
##########                       Formal_Charge:          -0.0200005
##########                     HBond_Acceptors:                   7
##########                        HBond_Donors:                   2
##########                         Heavy_Atoms:                  31
##########                          Grid_Score:          -35.842220
##########                     Grid_vdw_energy:          -35.076702
##########                      Grid_es_energy:           -0.765519
##########           Internal_energy_repulsive:           10.974244

@<TRIPOS>MOLECULE
ZINC000442010511
 57 59 1 0 0
SMALL
USER_CHARGES


@<TRIPOS>ATOM
      1 C1         -8.5069    1.0263   52.2786 C.3     1  ZINC000442010511   -0.1500
      2 C2         -8.8371    2.2493   53.1366 C.3     1  ZINC000442010511   -0.0500
      3 C3         -8.0516    2.1886   54.4212 C.2     1  ZINC000442010511    0.0000
      4 C4         -6.7720    2.5718   54.5797 C.2     1  ZINC000442010511   -0.2100
      5 C5         -6.4409    2.3434   55.9350 C.2     1  ZINC000442010511   -0.1900
      6 C6         -7.5379    1.8344   56.5238 C.2     1  ZINC000442010511   -0.0300
      7 C7         -7.6560    1.4352   57.9721 C.3     1  ZINC000442010511    0.2400
      8 H8         -6.7673    0.8783   58.2691 H       1  ZINC000442010511    0.1400
      9 C9         -7.7847    2.6899   58.8381 C.3     1  ZINC000442010511    0.0500
     10 O10        -8.9404    3.4287   58.4374 O.3     1  ZINC000442010511   -0.3800
     11 C11        -9.1544    4.6255   59.1884 C.3     1  ZINC000442010511    0.0300
     12 N12        -8.8420    0.5941   58.1518 N.am    1  ZINC000442010511   -0.6900
     13 C13        -8.8907   -0.2950   59.1635 C.2     1  ZINC000442010511    0.5200
     14 O14        -7.9514   -0.3999   59.9248 O.2     1  ZINC000442010511   -0.5100
     15 C15       -10.1003   -1.1511   59.3477 C.2     1  ZINC000442010511    0.5100
     16 O16       -10.2166   -1.8303   60.3471 O.2     1  ZINC000442010511   -0.5000
     17 N17       -11.0628   -1.1697   58.4045 N.am    1  ZINC000442010511   -0.6300
     18 C18       -12.1957   -1.9714   58.5771 C.ar    1  ZINC000442010511    0.1200
     19 C19       -13.0482   -1.7497   59.6491 C.ar    1  ZINC000442010511   -0.1000
     20 C20       -14.1671   -2.5434   59.8174 C.ar    1  ZINC000442010511   -0.1300
     21 C21       -14.4401   -3.5591   58.9198 C.ar    1  ZINC000442010511   -0.0900
     22 C22       -13.5953   -3.7869   57.8492 C.ar    1  ZINC000442010511   -0.1700
     23 C23       -12.4748   -2.9922   57.6692 C.ar    1  ZINC000442010511    0.1000
     24 O24       -11.6433   -3.2148   56.6172 O.3     1  ZINC000442010511   -0.2600
     25 C25       -11.9351   -2.6124   55.4347 C.ar    1  ZINC000442010511    0.0800
     26 C26       -10.9210   -2.3253   54.5322 C.ar    1  ZINC000442010511   -0.1300
     27 C27       -11.2203   -1.7132   53.3305 C.ar    1  ZINC000442010511   -0.1100
     28 C28       -12.5291   -1.3861   53.0270 C.ar    1  ZINC000442010511   -0.0800
     29 C29       -12.8526   -0.7179   51.7156 C.3     1  ZINC000442010511   -0.1200
     30 C30       -13.5415   -1.6715   53.9244 C.ar    1  ZINC000442010511   -0.1100
     31 C31       -13.2483   -2.2883   55.1252 C.ar    1  ZINC000442010511   -0.1100
     32 O32        -8.5122    1.7482   55.6033 O.3     1  ZINC000442010511   -0.1600
     33 H33        -7.4407    1.0183   52.0524 H       1  ZINC000442010511    0.0600
     34 H34        -8.7697    0.1192   52.8226 H       1  ZINC000442010511    0.0600
     35 H35        -9.0751    1.0702   51.3494 H       1  ZINC000442010511    0.0700
     36 H36        -8.5744    3.1565   52.5925 H       1  ZINC000442010511    0.0900
     37 H37        -9.9034    2.2574   53.3627 H       1  ZINC000442010511    0.0800
     38 H38        -6.1220    2.9759   53.8176 H       1  ZINC000442010511    0.1500
     39 H39        -5.4894    2.5396   56.4070 H       1  ZINC000442010511    0.1500
     40 H40        -7.8830    2.4007   59.8844 H       1  ZINC000442010511    0.0700
     41 H41        -6.8964    3.3095   58.7143 H       1  ZINC000442010511    0.0700
     42 H42       -10.0501    5.1282   58.8235 H       1  ZINC000442010511    0.0900
     43 H43        -9.2815    4.3757   60.2417 H       1  ZINC000442010511    0.0400
     44 H44        -8.2947    5.2856   59.0727 H       1  ZINC000442010511    0.0400
     45 H45        -9.5922    0.6771   57.5425 H       1  ZINC000442010511    0.4200
     46 H46       -10.9698   -0.6269   57.6060 H       1  ZINC000442010511    0.4300
     47 H47       -12.8375   -0.9573   60.3521 H       1  ZINC000442010511    0.1600
     48 H48       -14.8298   -2.3701   60.6524 H       1  ZINC000442010511    0.1300
     49 H49       -15.3156   -4.1766   59.0557 H       1  ZINC000442010511    0.1300
     50 H50       -13.8114   -4.5816   57.1506 H       1  ZINC000442010511    0.1300
     51 H51        -9.8985   -2.5799   54.7691 H       1  ZINC000442010511    0.1300
     52 H52       -10.4314   -1.4895   52.6276 H       1  ZINC000442010511    0.1300
     53 H53       -13.0593   -1.4778   50.9619 H       1  ZINC000442010511    0.0700
     54 H54       -13.7284   -0.0807   51.8387 H       1  ZINC000442010511    0.0700
     55 H55       -12.0042   -0.1120   51.3975 H       1  ZINC000442010511    0.0700
     56 H56       -14.5629   -1.4150   53.6849 H       1  ZINC000442010511    0.1300
     57 H57       -14.0395   -2.5112   55.8257 H       1  ZINC000442010511    0.1300
@<TRIPOS>BOND
     1     1     2    1
     2     1    33    1
     3     1    34    1
     4     1    35    1
     5     2     3    1
     6     2    36    1
     7     2    37    1
     8     3    32    1
     9     3     4    2
    10     4     5    1
    11     4    38    1
    12     5     6    2
    13     5    39    1
    14     6     7    1
    15     6    32    1
    16     7     8    1
    17     7     9    1
    18     7    12    1
    19     9    10    1
    20     9    40    1
    21     9    41    1
    22    10    11    1
    23    11    42    1
    24    11    43    1
    25    11    44    1
    26    12    13   am
    27    12    45    1
    28    13    14    2
    29    13    15    1
    30    15    16    2
    31    15    17   am
    32    17    18    1
    33    17    46    1
    34    18    23   ar
    35    18    19   ar
    36    19    20   ar
    37    19    47    1
    38    20    21   ar
    39    20    48    1
    40    21    22   ar
    41    21    49    1
    42    22    23   ar
    43    22    50    1
    44    23    24    1
    45    24    25    1
    46    25    31   ar
    47    25    26   ar
    48    26    27   ar
    49    26    51    1
    50    27    28   ar
    51    27    52    1
    52    28    29    1
    53    28    30   ar
    54    29    53    1
    55    29    54    1
    56    29    55    1
    57    30    31   ar
    58    30    56    1
    59    31    57    1
@<TRIPOS>SUBSTRUCTURE
     1 ZINC000442010511        1 TEMP              0 ****  ****    0 ROOT


##########                                Name:    ZINC001105793963
##########                DOCK_Rotatable_Bonds:                   9
##########                         Heavy_Atoms:                  24
##########                    Molecular_Weight:             337.422
##########                DOCK_Rotatable_Bonds:                   9
##########                       Formal_Charge:          -0.0100003
##########                     HBond_Acceptors:                   8
##########                        HBond_Donors:                   2
##########                         Heavy_Atoms:                  24
##########                          Grid_Score:          -35.744877
##########                     Grid_vdw_energy:          -31.396328
##########                      Grid_es_energy:           -4.348548
##########           Internal_energy_repulsive:            8.479110

@<TRIPOS>MOLECULE
ZINC001105793963
 51 52 1 0 0
SMALL
USER_CHARGES


@<TRIPOS>ATOM
      1 C1         -0.6939    3.7842   56.0698 C.3     1  ZINC001105793963   -0.1500
      2 C2         -1.2026    2.6159   55.2228 C.3     1  ZINC001105793963   -0.0300
      3 C3         -1.7608    3.1416   53.9254 C.2     1  ZINC001105793963    0.1800
      4 N4         -1.0962    3.3385   52.8123 N.2     1  ZINC001105793963   -0.4800
      5 C5         -1.9966    3.8112   51.9320 C.2     1  ZINC001105793963    0.1700
      6 C6         -1.7273    4.1943   50.4996 C.3     1  ZINC001105793963    0.1500
      7 N7         -1.0065    3.1044   49.8284 N.3     1  ZINC001105793963   -0.6900
      8 C8         -1.9430    2.1285   49.2552 C.3     1  ZINC001105793963    0.0700
      9 C9         -1.2111    1.2610   48.2293 C.3     1  ZINC001105793963   -0.1000
     10 H10        -0.2892    0.8665   48.6566 H       1  ZINC001105793963    0.1000
     11 C11        -0.9057    2.0783   46.9556 C.3     1  ZINC001105793963    0.1100
     12 N12        -1.0949    1.1198   45.8420 N.am    1  ZINC001105793963   -0.6200
     13 C13        -0.3523    0.9940   44.7243 C.2     1  ZINC001105793963    0.5300
     14 O14        -0.6384    0.1540   43.8975 O.2     1  ZINC001105793963   -0.5300
     15 C15         0.8334    1.8971   44.5019 C.3     1  ZINC001105793963    0.1300
     16 H16         1.4625    1.8967   45.3919 H       1  ZINC001105793963    0.1100
     17 C17         1.6422    1.3917   43.3055 C.3     1  ZINC001105793963   -0.1600
     18 N18         0.3661    3.2597   44.2348 N.am    1  ZINC001105793963   -0.7200
     19 C19         1.2246    4.2952   44.3188 C.2     1  ZINC001105793963    0.5200
     20 C20         0.7436    5.6970   44.0459 C.3     1  ZINC001105793963   -0.1700
     21 O21         2.3844    4.0989   44.6140 O.2     1  ZINC001105793963   -0.5500
     22 C22        -2.2855    0.3308   46.2357 C.3     1  ZINC001105793963    0.1000
     23 C23        -2.1198    0.1072   47.7567 C.3     1  ZINC001105793963   -0.1000
     24 H24        -3.0879    0.1592   48.2550 H       1  ZINC001105793963    0.0900
     25 C25        -1.4558   -1.2446   48.0264 C.3     1  ZINC001105793963   -0.1500
     26 N26        -3.1414    3.8764   52.5433 N.2     1  ZINC001105793963   -0.3700
     27 O27        -3.0286    3.4907   53.6878 O.3     1  ZINC001105793963    0.0800
     28 H28         0.0883    4.3138   55.5259 H       1  ZINC001105793963    0.0600
     29 H29        -1.5174    4.4670   56.2787 H       1  ZINC001105793963    0.0600
     30 H30        -0.2902    3.4039   57.0082 H       1  ZINC001105793963    0.0800
     31 H31        -0.3791    1.9330   55.0139 H       1  ZINC001105793963    0.1100
     32 H32        -1.9847    2.0862   55.7667 H       1  ZINC001105793963    0.1000
     33 H33        -2.6726    4.3742   49.9878 H       1  ZINC001105793963    0.1000
     34 H34        -1.1219    5.1005   50.4735 H       1  ZINC001105793963    0.0700
     35 H35        -0.3825    3.4647   49.1221 H       1  ZINC001105793963    0.3500
     36 H36        -2.3397    1.4958   50.0492 H       1  ZINC001105793963    0.0800
     37 H37        -2.7629    2.6553   48.7667 H       1  ZINC001105793963    0.0400
     38 H38        -1.6023    2.9114   46.8625 H       1  ZINC001105793963    0.0700
     39 H39         0.1220    2.4413   46.9742 H       1  ZINC001105793963    0.0900
     40 H40         2.4998    2.0450   43.1445 H       1  ZINC001105793963    0.0800
     41 H41         1.9898    0.3779   43.5041 H       1  ZINC001105793963    0.0800
     42 H42         1.0130    1.3922   42.4153 H       1  ZINC001105793963    0.0600
     43 H43        -0.5612    3.4166   43.9975 H       1  ZINC001105793963    0.4100
     44 H44        -0.3178    5.6752   43.7987 H       1  ZINC001105793963    0.0800
     45 H45         0.8976    6.3129   44.9319 H       1  ZINC001105793963    0.1000
     46 H46         1.3028    6.1167   43.2098 H       1  ZINC001105793963    0.1000
     47 H47        -3.1976    0.8911   46.0301 H       1  ZINC001105793963    0.0800
     48 H48        -2.2988   -0.6245   45.7112 H       1  ZINC001105793963    0.0900
     49 H49        -0.4844   -1.2770   47.5330 H       1  ZINC001105793963    0.0600
     50 H50        -1.3226   -1.3762   49.1001 H       1  ZINC001105793963    0.0600
     51 H51        -2.0874   -2.0435   47.6379 H       1  ZINC001105793963    0.0600
@<TRIPOS>BOND
     1     1     2    1
     2     1    28    1
     3     1    29    1
     4     1    30    1
     5     2     3    1
     6     2    31    1
     7     2    32    1
     8     3    27    1
     9     3     4    2
    10     4     5    1
    11     5     6    1
    12     5    26    2
    13     6     7    1
    14     6    33    1
    15     6    34    1
    16     7     8    1
    17     7    35    1
    18     8     9    1
    19     8    36    1
    20     8    37    1
    21     9    10    1
    22     9    23    1
    23     9    11    1
    24    11    12    1
    25    11    38    1
    26    11    39    1
    27    12    13   am
    28    12    22    1
    29    13    14    2
    30    13    15    1
    31    15    16    1
    32    15    17    1
    33    15    18    1
    34    17    40    1
    35    17    41    1
    36    17    42    1
    37    18    19   am
    38    18    43    1
    39    19    20    1
    40    19    21    2
    41    20    44    1
    42    20    45    1
    43    20    46    1
    44    22    23    1
    45    22    47    1
    46    22    48    1
    47    23    24    1
    48    23    25    1
    49    25    49    1
    50    25    50    1
    51    25    51    1
    52    26    27    1
@<TRIPOS>SUBSTRUCTURE
     1 ZINC001105793963        1 TEMP              0 ****  ****    0 ROOT


##########                                Name:    ZINC000508765459
##########                DOCK_Rotatable_Bonds:                  10
##########                         Heavy_Atoms:                  29
##########                    Molecular_Weight:               405.5
##########                DOCK_Rotatable_Bonds:                  10
##########                       Formal_Charge:         -6.4075e-07
##########                     HBond_Acceptors:                  10
##########                        HBond_Donors:                   1
##########                         Heavy_Atoms:                  29
##########                          Grid_Score:          -35.738022
##########                     Grid_vdw_energy:          -34.988979
##########                      Grid_es_energy:           -0.749043
##########           Internal_energy_repulsive:           14.520136

@<TRIPOS>MOLECULE
ZINC000508765459
 60 62 1 0 0
SMALL
USER_CHARGES


@<TRIPOS>ATOM
      1 C1         -6.7191    3.3121   53.5070 C.3     1  ZINC000508765459    0.0300
      2 O2         -7.8999    3.0609   52.7423 O.3     1  ZINC000508765459   -0.3900
      3 C3         -8.5523    1.8318   53.0674 C.3     1  ZINC000508765459    0.0500
      4 C4         -9.7016    1.5896   52.0870 C.3     1  ZINC000508765459    0.1100
      5 N5        -10.4704    0.4185   52.5155 N.am    1  ZINC000508765459   -0.5900
      6 C6        -11.5328    0.6254   53.4901 C.3     1  ZINC000508765459    0.1000
      7 C7        -12.5544   -0.5119   53.4289 C.3     1  ZINC000508765459    0.1200
      8 N8        -11.8202   -1.7883   53.4038 N.am    1  ZINC000508765459   -0.6400
      9 C9        -11.9702   -2.7028   54.3822 C.2     1  ZINC000508765459    0.7100
     10 O10       -11.3507   -3.7481   54.3376 O.2     1  ZINC000508765459   -0.5800
     11 N11       -12.8070   -2.4587   55.4102 N.am    1  ZINC000508765459   -0.7400
     12 C12       -12.9688   -3.4522   56.4748 C.3     1  ZINC000508765459    0.1400
     13 C13       -14.2972   -3.2150   57.1960 C.3     1  ZINC000508765459   -0.1400
     14 C14       -14.2908   -1.8236   57.8320 C.3     1  ZINC000508765459    0.0600
     15 N15       -13.1032   -1.6804   58.6846 N.3     1  ZINC000508765459   -0.5400
     16 C16       -13.3926   -2.0940   60.0648 C.3     1  ZINC000508765459    0.0500
     17 C17       -12.1131   -2.0059   60.8999 C.3     1  ZINC000508765459    0.0700
     18 N18       -11.6007   -0.6290   60.8623 N.3     1  ZINC000508765459   -0.4600
     19 C19       -10.4816   -0.4942   61.6656 C.ar    1  ZINC000508765459    0.4900
     20 N20        -9.2870   -0.7668   61.1616 N.ar    1  ZINC000508765459   -0.5500
     21 C21        -8.1974   -0.6479   61.9020 C.ar    1  ZINC000508765459    0.1700
     22 C22        -8.3171   -0.2326   63.2190 C.ar    1  ZINC000508765459   -0.2600
     23 C23        -9.5817    0.0443   63.7142 C.ar    1  ZINC000508765459    0.1700
     24 N24       -10.6300   -0.0903   62.9187 N.ar    1  ZINC000508765459   -0.5300
     25 C25       -11.3112   -0.2154   59.4822 C.3     1  ZINC000508765459    0.0700
     26 C26       -12.5907   -0.3036   58.6471 C.3     1  ZINC000508765459    0.0600
     27 C27       -10.9172   -2.0245   52.2675 C.3     1  ZINC000508765459    0.1000
     28 C28       -10.1518   -0.7617   51.9818 C.2     1  ZINC000508765459    0.5100
     29 O29        -9.1954   -0.8205   51.2383 O.2     1  ZINC000508765459   -0.5400
     30 H30        -5.9992    2.5113   53.3374 H       1  ZINC000508765459    0.0400
     31 H31        -6.2833    4.2632   53.2007 H       1  ZINC000508765459    0.0900
     32 H32        -6.9739    3.3534   54.5660 H       1  ZINC000508765459    0.0400
     33 H33        -7.8374    1.0118   52.9988 H       1  ZINC000508765459    0.0500
     34 H34        -8.9459    1.8867   54.0824 H       1  ZINC000508765459    0.0600
     35 H35       -10.3523    2.4639   52.0668 H       1  ZINC000508765459    0.1100
     36 H36        -9.2978    1.4142   51.0898 H       1  ZINC000508765459    0.0900
     37 H37       -11.1000    0.6655   54.4896 H       1  ZINC000508765459    0.0700
     38 H38       -12.0344    1.5699   53.2789 H       1  ZINC000508765459    0.1000
     39 H39       -13.1985   -0.4753   54.3075 H       1  ZINC000508765459    0.1200
     40 H40       -13.1572   -0.4165   52.5259 H       1  ZINC000508765459    0.0800
     41 H41       -13.3021   -1.6254   55.4452 H       1  ZINC000508765459    0.4000
     42 H42       -12.9638   -4.4526   56.0420 H       1  ZINC000508765459    0.0700
     43 H43       -12.1478   -3.3597   57.1858 H       1  ZINC000508765459    0.0700
     44 H44       -15.1164   -3.2837   56.4803 H       1  ZINC000508765459    0.0700
     45 H45       -14.4287   -3.9688   57.9723 H       1  ZINC000508765459    0.0800
     46 H46       -14.2693   -1.0660   57.0488 H       1  ZINC000508765459    0.0800
     47 H47       -15.1892   -1.6962   58.4362 H       1  ZINC000508765459    0.0400
     48 H48       -14.1507   -1.4363   60.4901 H       1  ZINC000508765459    0.0500
     49 H49       -13.7586   -3.1208   60.0675 H       1  ZINC000508765459    0.0900
     50 H50       -12.3318   -2.2844   61.9308 H       1  ZINC000508765459    0.0900
     51 H51       -11.3642   -2.6839   60.4907 H       1  ZINC000508765459    0.0600
     52 H52        -7.2265   -0.8718   61.4857 H       1  ZINC000508765459    0.1700
     53 H53        -7.4439   -0.1274   63.8459 H       1  ZINC000508765459    0.1500
     54 H54        -9.7094    0.3696   64.7361 H       1  ZINC000508765459    0.1700
     55 H55       -10.9452    0.8114   59.4794 H       1  ZINC000508765459    0.1000
     56 H56       -10.5532   -0.8731   59.0568 H       1  ZINC000508765459    0.0500
     57 H57       -12.3720   -0.0251   57.6162 H       1  ZINC000508765459    0.0900
     58 H58       -13.3396    0.3745   59.0563 H       1  ZINC000508765459    0.0500
     59 H59       -10.2228   -2.8278   52.5138 H       1  ZINC000508765459    0.1100
     60 H60       -11.5005   -2.3004   51.3890 H       1  ZINC000508765459    0.1100
@<TRIPOS>BOND
     1     1     2    1
     2     1    30    1
     3     1    31    1
     4     1    32    1
     5     2     3    1
     6     3     4    1
     7     3    33    1
     8     3    34    1
     9     4     5    1
    10     4    35    1
    11     4    36    1
    12     5    28   am
    13     5     6    1
    14     6     7    1
    15     6    37    1
    16     6    38    1
    17     7     8    1
    18     7    39    1
    19     7    40    1
    20     8     9   am
    21     8    27    1
    22     9    10    2
    23     9    11   am
    24    11    12    1
    25    11    41    1
    26    12    13    1
    27    12    42    1
    28    12    43    1
    29    13    14    1
    30    13    44    1
    31    13    45    1
    32    14    15    1
    33    14    46    1
    34    14    47    1
    35    15    26    1
    36    15    16    1
    37    16    17    1
    38    16    48    1
    39    16    49    1
    40    17    18    1
    41    17    50    1
    42    17    51    1
    43    18    19    1
    44    18    25    1
    45    19    24   ar
    46    19    20   ar
    47    20    21   ar
    48    21    22   ar
    49    21    52    1
    50    22    23   ar
    51    22    53    1
    52    23    24   ar
    53    23    54    1
    54    25    26    1
    55    25    55    1
    56    25    56    1
    57    26    57    1
    58    26    58    1
    59    27    28    1
    60    27    59    1
    61    27    60    1
    62    28    29    2
@<TRIPOS>SUBSTRUCTURE
     1 ZINC000508765459        1 TEMP              0 ****  ****    0 ROOT


##########                                Name:    ZINC000013809319
##########                DOCK_Rotatable_Bonds:                  10
##########                         Heavy_Atoms:                  30
##########                    Molecular_Weight:             407.469
##########                DOCK_Rotatable_Bonds:                  10
##########                       Formal_Charge:         -0.00999978
##########                     HBond_Acceptors:                   7
##########                        HBond_Donors:                   1
##########                         Heavy_Atoms:                  30
##########                          Grid_Score:          -35.627159
##########                     Grid_vdw_energy:          -32.645420
##########                      Grid_es_energy:           -2.981740
##########           Internal_energy_repulsive:           17.345577

@<TRIPOS>MOLECULE
ZINC000013809319
 55 57 1 0 0
SMALL
USER_CHARGES


@<TRIPOS>ATOM
      1 C1          0.9877    2.8820   42.2282 C.3     1  ZINC000013809319   -0.1500
      2 C2          1.8847    1.7213   42.6632 C.3     1  ZINC000013809319    0.0500
      3 O3          1.1084    0.7647   43.3871 O.3     1  ZINC000013809319   -0.3100
      4 C4          0.4995    1.1963   44.5214 C.ar    1  ZINC000013809319    0.1500
      5 C5         -0.8640    0.9948   44.6958 C.ar    1  ZINC000013809319   -0.2200
      6 C6         -1.4850    1.4311   45.8459 C.ar    1  ZINC000013809319   -0.0300
      7 C7         -0.7425    2.0761   46.8363 C.ar    1  ZINC000013809319   -0.1100
      8 C8         -1.4060    2.5456   48.0732 C.2     1  ZINC000013809319    0.2300
      9 C9         -1.1558    3.8187   48.5592 C.2     1  ZINC000013809319   -0.2900
     10 C10        -1.8075    4.2244   49.7368 C.2     1  ZINC000013809319    0.5300
     11 O11        -1.6177    5.3369   50.2011 O.2     1  ZINC000013809319   -0.5400
     12 N12        -2.6473    3.3598   50.3436 N.am    1  ZINC000013809319   -0.5100
     13 C13        -3.3399    3.7570   51.5719 C.3     1  ZINC000013809319    0.0700
     14 C14        -2.4185    3.5726   52.7501 C.2     1  ZINC000013809319    0.5000
     15 O15        -1.4141    2.9025   52.6355 O.2     1  ZINC000013809319   -0.5200
     16 N16        -2.7106    4.1522   53.9313 N.am    1  ZINC000013809319   -0.7200
     17 C17        -1.8140    3.9744   55.0762 C.3     1  ZINC000013809319    0.1300
     18 C18        -2.5921    4.2035   56.3736 C.3     1  ZINC000013809319   -0.0800
     19 C19        -3.8760    3.4154   56.3351 C.ar    1  ZINC000013809319   -0.1200
     20 C20        -3.8729    2.0728   56.6597 C.ar    1  ZINC000013809319   -0.0800
     21 C21        -5.0507    1.3490   56.6240 C.ar    1  ZINC000013809319   -0.1500
     22 C22        -6.2339    1.9668   56.2641 C.ar    1  ZINC000013809319   -0.0800
     23 C23        -6.2423    3.3096   55.9388 C.ar    1  ZINC000013809319   -0.2100
     24 C24        -5.0632    4.0392   55.9789 C.ar    1  ZINC000013809319    0.1300
     25 O25        -5.0688    5.3600   55.6595 O.3     1  ZINC000013809319   -0.3100
     26 C26        -6.3249    5.9328   55.2902 C.3     1  ZINC000013809319    0.0300
     27 C27        -2.8525    2.1325   49.8247 C.2     1  ZINC000013809319    0.3900
     28 N28        -2.2602    1.7419   48.7305 N.2     1  ZINC000013809319   -0.5300
     29 C29         0.6272    2.2768   46.6577 C.ar    1  ZINC000013809319   -0.0500
     30 C30         1.2426    1.8332   45.5075 C.ar    1  ZINC000013809319   -0.1600
     31 H31         0.1890    2.5044   41.5897 H       1  ZINC000013809319    0.0700
     32 H32         0.5552    3.3567   43.1089 H       1  ZINC000013809319    0.0700
     33 H33         1.5799    3.6118   41.6761 H       1  ZINC000013809319    0.0800
     34 H34         2.3173    1.2467   41.7824 H       1  ZINC000013809319    0.0600
     35 H35         2.6835    2.0990   43.3016 H       1  ZINC000013809319    0.0600
     36 H36        -1.4379    0.4959   43.9288 H       1  ZINC000013809319    0.1300
     37 H37        -2.5451    1.2744   45.9806 H       1  ZINC000013809319    0.1400
     38 H38        -0.4762    4.4831   48.0460 H       1  ZINC000013809319    0.1600
     39 H39        -3.6336    4.8043   51.5010 H       1  ZINC000013809319    0.1300
     40 H40        -4.2277    3.1387   51.7047 H       1  ZINC000013809319    0.1300
     41 H41        -3.5146    4.6872   54.0234 H       1  ZINC000013809319    0.4000
     42 H42        -1.4111    2.9617   55.0682 H       1  ZINC000013809319    0.0700
     43 H43        -0.9959    4.6917   55.0117 H       1  ZINC000013809319    0.0700
     44 H44        -1.9900    3.8760   57.2211 H       1  ZINC000013809319    0.0800
     45 H45        -2.8199    5.2643   56.4781 H       1  ZINC000013809319    0.0800
     46 H46        -2.9499    1.5879   56.9412 H       1  ZINC000013809319    0.1300
     47 H47        -5.0461    0.2991   56.8775 H       1  ZINC000013809319    0.1300
     48 H48        -7.1523    1.3993   56.2366 H       1  ZINC000013809319    0.1300
     49 H49        -7.1668    3.7918   55.6574 H       1  ZINC000013809319    0.1300
     50 H50        -7.0287    5.8281   56.1159 H       1  ZINC000013809319    0.0600
     51 H51        -6.1887    6.9896   55.0606 H       1  ZINC000013809319    0.1000
     52 H52        -6.7150    5.4176   54.4126 H       1  ZINC000013809319    0.0600
     53 H53        -3.5286    1.4561   50.3265 H       1  ZINC000013809319    0.2000
     54 H54         1.2046    2.7755   47.4221 H       1  ZINC000013809319    0.1400
     55 H55         2.3025    1.9879   45.3688 H       1  ZINC000013809319    0.1400
@<TRIPOS>BOND
     1     1     2    1
     2     1    31    1
     3     1    32    1
     4     1    33    1
     5     2     3    1
     6     2    34    1
     7     2    35    1
     8     3     4    1
     9     4    30   ar
    10     4     5   ar
    11     5     6   ar
    12     5    36    1
    13     6     7   ar
    14     6    37    1
    15     7     8    1
    16     7    29   ar
    17     8    28    1
    18     8     9    2
    19     9    10    1
    20     9    38    1
    21    10    11    2
    22    10    12   am
    23    12    13    1
    24    12    27    1
    25    13    14    1
    26    13    39    1
    27    13    40    1
    28    14    15    2
    29    14    16   am
    30    16    17    1
    31    16    41    1
    32    17    18    1
    33    17    42    1
    34    17    43    1
    35    18    19    1
    36    18    44    1
    37    18    45    1
    38    19    24   ar
    39    19    20   ar
    40    20    21   ar
    41    20    46    1
    42    21    22   ar
    43    21    47    1
    44    22    23   ar
    45    22    48    1
    46    23    24   ar
    47    23    49    1
    48    24    25    1
    49    25    26    1
    50    26    50    1
    51    26    51    1
    52    26    52    1
    53    27    28    2
    54    27    53    1
    55    29    30   ar
    56    29    54    1
    57    30    55    1
@<TRIPOS>SUBSTRUCTURE
     1 ZINC000013809319        1 TEMP              0 ****  ****    0 ROOT


##########                                Name:     oleObject70.pdb
##########                DOCK_Rotatable_Bonds:                   9
##########                         Heavy_Atoms:                  35
##########                    Molecular_Weight:             504.458
##########                DOCK_Rotatable_Bonds:                   9
##########                       Formal_Charge:          0.00010002
##########                     HBond_Acceptors:                   6
##########                        HBond_Donors:                   2
##########                         Heavy_Atoms:                  35
##########                          Grid_Score:          -35.547993
##########                     Grid_vdw_energy:          -36.153568
##########                      Grid_es_energy:            0.605574
##########           Internal_energy_repulsive:           20.328268

@<TRIPOS>MOLECULE
oleObject70.pdb
 62 65 1 0 0
SMALL
NO_CHARGES


@<TRIPOS>ATOM
      1 C         -13.3944    3.7616   55.0015 C.ar    1  UNL        -0.0620
      2 C         -13.2407    2.8948   56.0928 C.ar    1  UNL        -0.0590
      3 C         -12.1678    1.9836   56.1432 C.ar    1  UNL        -0.0456
      4 C         -11.2253    1.9482   55.0839 C.ar    1  UNL        -0.0187
      5 C         -11.4030    2.8172   53.9853 C.ar    1  UNL        -0.0565
      6 C         -12.4766    3.7190   53.9444 C.ar    1  UNL        -0.0619
      7 C         -10.0402    0.9664   55.1042 C.3     1  UNL         0.0909
      8 C         -10.3728   -0.4265   54.5417 C.ar    1  UNL         0.0681
      9 C         -10.2733   -0.7162   53.1570 C.ar    1  UNL        -0.0272
     10 C         -10.5995   -2.0139   52.7193 C.ar    1  UNL        -0.0559
     11 C         -11.0049   -2.9715   53.6600 C.ar    1  UNL        -0.0435
     12 C         -11.0683   -2.6008   55.0111 C.ar    1  UNL         0.0272
     13 N         -10.7582   -1.3632   55.4395 N.ar    1  UNL        -0.2587
     14 C          -9.8333    0.3261   52.1350 C.3     1  UNL        -0.0379
     15 N          -8.7914    1.5633   54.5812 N.am    1  UNL        -0.2987
     16 C          -7.9047    2.3752   55.2777 C.2     1  UNL         0.2437
     17 O          -8.0719    2.6818   56.4456 O.2     1  UNL        -0.2719
     18 C          -6.6972    2.8571   54.5095 C.ar    1  UNL         0.0371
     19 C          -5.4841    3.1950   55.1508 C.ar    1  UNL        -0.0494
     20 C          -4.3796    3.6385   54.4048 C.ar    1  UNL        -0.0570
     21 C          -4.4639    3.7539   53.0075 C.ar    1  UNL        -0.0341
     22 C          -5.6652    3.4180   52.3617 C.ar    1  UNL        -0.0570
     23 C          -6.7707    2.9753   53.1060 C.ar    1  UNL        -0.0494
     24 C          -3.2648    4.2272   52.2032 C.3     1  UNL         0.0208
     25 N          -3.2455    3.6215   50.8657 N.4     1  UNL        -0.3086
     26 C          -2.1764    2.6317   50.6786 C.3     1  UNL         0.0223
     27 C          -2.1369    2.1167   49.2462 C.ar    1  UNL        -0.0154
     28 C          -2.8965    0.9827   48.8997 C.ar    1  UNL        -0.0548
     29 C          -2.8820    0.4894   47.5849 C.ar    1  UNL        -0.0431
     30 C          -2.1073    1.1295   46.6052 C.ar    1  UNL         0.0421
     31 C          -1.3490    2.2626   46.9388 C.ar    1  UNL        -0.0245
     32 C          -1.3624    2.7572   48.2541 C.ar    1  UNL         0.0465
     33 CL         -0.4053    4.1813   48.6197 Cl      1  UNL        -0.0839
     34 CL         -2.0892    0.5162   44.9655 Cl      1  UNL        -0.0843
     35 C         -12.0675    1.0457   57.3422 C.3     1  UNL        -0.0394
     36 H         -14.2283    4.4570   54.9711 H       1  UNL         0.0623
     37 H         -13.9656    2.9285   56.9013 H       1  UNL         0.0626
     38 H         -10.7141    2.7923   53.1476 H       1  UNL         0.0627
     39 H         -12.5984    4.3797   53.0909 H       1  UNL         0.0623
     40 H          -9.8131    0.8008   56.1615 H       1  UNL         0.0624
     41 H         -10.5423   -2.2767   51.6669 H       1  UNL         0.0627
     42 H         -11.2645   -3.9792   53.3498 H       1  UNL         0.0639
     43 H         -11.3783   -3.3136   55.7740 H       1  UNL         0.0840
     44 H         -10.5577    1.1471   52.0710 H       1  UNL         0.0280
     45 H          -9.7429   -0.1072   51.1311 H       1  UNL         0.0280
     46 H          -8.8559    0.7508   52.3941 H       1  UNL         0.0280
     47 H          -8.5636    1.3660   53.6167 H       1  UNL         0.1508
     48 H          -5.3803    3.1192   56.2283 H       1  UNL         0.0631
     49 H          -3.4534    3.8900   54.9143 H       1  UNL         0.0626
     50 H          -5.7431    3.4971   51.2808 H       1  UNL         0.0626
     51 H          -7.6886    2.7208   52.5834 H       1  UNL         0.0631
     52 H          -2.3445    3.9670   52.7423 H       1  UNL         0.0479
     53 H          -3.2993    5.3209   52.1147 H       1  UNL         0.0479
     54 H          -3.1430    4.3582   50.1680 H       1  UNL         0.1229
     55 H          -2.3350    1.7878   51.3625 H       1  UNL         0.0480
     56 H          -1.2054    3.0762   50.9323 H       1  UNL         0.0480
     57 H          -3.5026    0.4840   49.6510 H       1  UNL         0.0627
     58 H          -3.4716   -0.3858   47.3269 H       1  UNL         0.0639
     59 H          -0.7526    2.7585   46.1784 H       1  UNL         0.0654
     60 H         -12.9563    1.1092   57.9825 H       1  UNL         0.0280
     61 H         -11.1977    1.2923   57.9636 H       1  UNL         0.0280
     62 H         -11.9743    0.0004   57.0220 H       1  UNL         0.0280
@<TRIPOS>BOND
     1     1     2   ar
     2     1     6   ar
     3     1    36    1
     4     2     3   ar
     5     2    37    1
     6     3     4   ar
     7     3    35    1
     8     4     5   ar
     9     4     7    1
    10     5     6   ar
    11     5    38    1
    12     6    39    1
    13     7     8    1
    14     7    15    1
    15     7    40    1
    16     8     9   ar
    17     8    13   ar
    18     9    10   ar
    19     9    14    1
    20    10    11   ar
    21    10    41    1
    22    11    12   ar
    23    11    42    1
    24    12    13   ar
    25    12    43    1
    26    14    44    1
    27    14    45    1
    28    14    46    1
    29    15    16   am
    30    15    47    1
    31    16    17    2
    32    16    18    1
    33    18    19   ar
    34    18    23   ar
    35    19    20   ar
    36    19    48    1
    37    20    21   ar
    38    20    49    1
    39    21    22   ar
    40    21    24    1
    41    22    23   ar
    42    22    50    1
    43    23    51    1
    44    24    25    1
    45    24    52    1
    46    24    53    1
    47    25    26    1
    48    25    54    1
    49    26    27    1
    50    26    55    1
    51    26    56    1
    52    27    28   ar
    53    27    32   ar
    54    28    29   ar
    55    28    57    1
    56    29    30   ar
    57    29    58    1
    58    30    31   ar
    59    30    34    1
    60    31    32   ar
    61    31    59    1
    62    32    33    1
    63    35    60    1
    64    35    61    1
    65    35    62    1
@<TRIPOS>SUBSTRUCTURE
     1 UNL         1 TEMP              0 ****  ****    0 ROOT


##########                                Name:    ZINC000195331548
##########                DOCK_Rotatable_Bonds:                   7
##########                         Heavy_Atoms:                  26
##########                    Molecular_Weight:             378.539
##########                DOCK_Rotatable_Bonds:                   7
##########                       Formal_Charge:          -0.0100004
##########                     HBond_Acceptors:                   7
##########                        HBond_Donors:                   2
##########                         Heavy_Atoms:                  26
##########                          Grid_Score:          -35.518974
##########                     Grid_vdw_energy:          -34.203247
##########                      Grid_es_energy:           -1.315727
##########           Internal_energy_repulsive:           24.307821

@<TRIPOS>MOLECULE
ZINC000195331548
 56 58 1 0 0
SMALL
USER_CHARGES


@<TRIPOS>ATOM
      1 C1         -9.3504   -0.6777   51.6498 C.3     1  ZINC000195331548   -0.0800
      2 C2         -9.1067    0.7007   52.2078 C.2     1  ZINC000195331548    0.0700
      3 C3        -10.0909    1.5800   52.4181 C.2     1  ZINC000195331548   -0.2600
      4 S4         -9.3746    3.0482   53.0783 S.3     1  ZINC000195331548    0.1100
      5 C5         -7.8219    2.3368   52.9981 C.2     1  ZINC000195331548    0.0600
      6 C6         -6.5416    3.0104   53.4205 C.3     1  ZINC000195331548   -0.0100
      7 H7         -5.8261    2.2578   53.7519 H       1  ZINC000195331548    0.1100
      8 C8         -6.8298    3.9824   54.5679 C.3     1  ZINC000195331548   -0.1200
      9 C9         -5.5358    4.7061   54.9506 C.3     1  ZINC000195331548   -0.1100
     10 C10        -4.9805    5.4313   53.7227 C.3     1  ZINC000195331548    0.0500
     11 N11        -4.7207    4.4584   52.6539 N.3     1  ZINC000195331548   -0.5200
     12 C12        -4.0582    5.0982   51.5093 C.3     1  ZINC000195331548    0.0400
     13 C13        -2.9026    4.2439   51.0560 C.2     1  ZINC000195331548    0.5100
     14 O14        -1.8011    4.4107   51.5343 O.2     1  ZINC000195331548   -0.4400
     15 N15        -3.0936    3.2942   50.1189 N.am    1  ZINC000195331548   -0.7000
     16 C16        -2.0597    2.5311   49.7123 C.2     1  ZINC000195331548    0.6900
     17 O17        -0.9548    2.7003   50.1896 O.2     1  ZINC000195331548   -0.5300
     18 N18        -2.2510    1.5804   48.7763 N.am    1  ZINC000195331548   -0.7300
     19 C19        -1.1275    0.7498   48.3356 C.3     1  ZINC000195331548    0.1700
     20 H20        -0.5501    0.4297   49.2030 H       1  ZINC000195331548    0.0900
     21 C21        -0.2314    1.5603   47.3971 C.3     1  ZINC000195331548   -0.1300
     22 C22        -1.0419    2.0095   46.1797 C.3     1  ZINC000195331548   -0.1200
     23 C23        -1.5754    0.7807   45.4405 C.3     1  ZINC000195331548   -0.1200
     24 C24        -2.4715   -0.0299   46.3790 C.3     1  ZINC000195331548   -0.1100
     25 C25        -1.6610   -0.4790   47.5964 C.3     1  ZINC000195331548   -0.1000
     26 H26        -0.8252   -1.0970   47.2685 H       1  ZINC000195331548    0.0900
     27 C27        -2.5572   -1.2895   48.5350 C.3     1  ZINC000195331548   -0.1500
     28 C28        -5.9572    3.7849   52.2370 C.3     1  ZINC000195331548    0.0600
     29 N29        -7.9056    1.1379   52.5287 N.2     1  ZINC000195331548   -0.4700
     30 H30        -9.5313   -1.3743   52.4684 H       1  ZINC000195331548    0.0800
     31 H31       -10.2199   -0.6553   50.9930 H       1  ZINC000195331548    0.0800
     32 H32        -8.4762   -1.0006   51.0844 H       1  ZINC000195331548    0.0800
     33 H33       -11.1404    1.4179   52.2217 H       1  ZINC000195331548    0.1800
     34 H34        -7.5745    4.7117   54.2492 H       1  ZINC000195331548    0.0600
     35 H35        -7.2067    3.4290   55.4281 H       1  ZINC000195331548    0.0700
     36 H36        -5.7431    5.4303   55.7382 H       1  ZINC000195331548    0.0800
     37 H37        -4.8044    3.9802   55.3061 H       1  ZINC000195331548    0.0800
     38 H38        -4.0515    5.9359   53.9882 H       1  ZINC000195331548    0.0800
     39 H39        -5.7067    6.1665   53.3760 H       1  ZINC000195331548    0.0400
     40 H40        -3.6897    6.0804   51.8054 H       1  ZINC000195331548    0.1200
     41 H41        -4.7709    5.2086   50.6921 H       1  ZINC000195331548    0.0700
     42 H42        -3.9751    3.1600   49.7371 H       1  ZINC000195331548    0.4100
     43 H43        -3.1325    1.4462   48.3945 H       1  ZINC000195331548    0.4000
     44 H44         0.6045    0.9423   47.0693 H       1  ZINC000195331548    0.0700
     45 H45         0.1487    2.4357   47.9237 H       1  ZINC000195331548    0.0700
     46 H46        -0.4034    2.5869   45.5110 H       1  ZINC000195331548    0.0600
     47 H47        -1.8777    2.6275   46.5075 H       1  ZINC000195331548    0.0600
     48 H48        -2.1527    1.1008   44.5732 H       1  ZINC000195331548    0.0600
     49 H49        -0.7395    0.1627   45.1126 H       1  ZINC000195331548    0.0600
     50 H50        -3.3074    0.5882   46.7069 H       1  ZINC000195331548    0.0600
     51 H51        -2.8516   -0.9053   45.8524 H       1  ZINC000195331548    0.0700
     52 H52        -3.3931   -0.6715   48.8629 H       1  ZINC000195331548    0.0500
     53 H53        -2.9373   -2.1650   48.0083 H       1  ZINC000195331548    0.0600
     54 H54        -1.9798   -1.6095   49.4023 H       1  ZINC000195331548    0.0600
     55 H55        -6.6788    4.5278   51.8972 H       1  ZINC000195331548    0.0400
     56 H56        -5.7375    3.0935   51.4234 H       1  ZINC000195331548    0.0900
@<TRIPOS>BOND
     1     1     2    1
     2     1    30    1
     3     1    31    1
     4     1    32    1
     5     2    29    1
     6     2     3    2
     7     3     4    1
     8     3    33    1
     9     4     5    1
    10     5     6    1
    11     5    29    2
    12     6     7    1
    13     6    28    1
    14     6     8    1
    15     8     9    1
    16     8    34    1
    17     8    35    1
    18     9    10    1
    19     9    36    1
    20     9    37    1
    21    10    11    1
    22    10    38    1
    23    10    39    1
    24    11    12    1
    25    11    28    1
    26    12    13    1
    27    12    40    1
    28    12    41    1
    29    13    14    2
    30    13    15   am
    31    15    16   am
    32    15    42    1
    33    16    17    2
    34    16    18   am
    35    18    19    1
    36    18    43    1
    37    19    20    1
    38    19    25    1
    39    19    21    1
    40    21    22    1
    41    21    44    1
    42    21    45    1
    43    22    23    1
    44    22    46    1
    45    22    47    1
    46    23    24    1
    47    23    48    1
    48    23    49    1
    49    24    25    1
    50    24    50    1
    51    24    51    1
    52    25    26    1
    53    25    27    1
    54    27    52    1
    55    27    53    1
    56    27    54    1
    57    28    55    1
    58    28    56    1
@<TRIPOS>SUBSTRUCTURE
     1 ZINC000195331548        1 TEMP              0 ****  ****    0 ROOT


##########                                Name:    ZINC000505965769
##########                DOCK_Rotatable_Bonds:                   9
##########                         Heavy_Atoms:                  29
##########                    Molecular_Weight:              419.88
##########                DOCK_Rotatable_Bonds:                   9
##########                       Formal_Charge:               -0.02
##########                     HBond_Acceptors:                   7
##########                        HBond_Donors:                   1
##########                         Heavy_Atoms:                  29
##########                          Grid_Score:          -35.515938
##########                     Grid_vdw_energy:          -31.740465
##########                      Grid_es_energy:           -3.775471
##########           Internal_energy_repulsive:           15.169864

@<TRIPOS>MOLECULE
ZINC000505965769
 52 54 1 0 0
SMALL
USER_CHARGES


@<TRIPOS>ATOM
      1 C1         -1.9079    0.8905   45.0426 C.3     1  ZINC000505965769    0.0200
      2 O2         -1.5196    0.2556   46.2626 O.3     1  ZINC000505965769   -0.3100
      3 C3         -1.7266    0.9485   47.4105 C.ar    1  ZINC000505965769    0.1800
      4 C4         -2.7687    0.5886   48.2586 C.ar    1  ZINC000505965769   -0.2200
      5 C5         -2.9845    1.2801   49.4164 C.ar    1  ZINC000505965769   -0.0200
      6 C6         -2.1551    2.3567   49.7544 C.ar    1  ZINC000505965769   -0.2100
      7 C7         -2.3846    3.1010   50.9983 C.2     1  ZINC000505965769    0.3900
      8 O8         -1.8125    2.7722   52.0162 O.2     1  ZINC000505965769   -0.4400
      9 C9         -3.3308    4.2738   51.0111 C.3     1  ZINC000505965769   -0.1500
     10 C10        -4.6736    3.8393   51.6018 C.3     1  ZINC000505965769   -0.1300
     11 C11        -4.8274    4.4230   52.9827 C.2     1  ZINC000505965769    0.5200
     12 O12        -5.3987    5.4822   53.1331 O.2     1  ZINC000505965769   -0.5300
     13 N13        -4.3302    3.7678   54.0504 N.am    1  ZINC000505965769   -0.7200
     14 C14        -4.4782    4.3361   55.3925 C.3     1  ZINC000505965769    0.1900
     15 H15        -4.7564    5.3871   55.3136 H       1  ZINC000505965769    0.1100
     16 C16        -5.5516    3.5871   56.1396 C.ar    1  ZINC000505965769   -0.1000
     17 C17        -6.4487    2.7941   55.4487 C.ar    1  ZINC000505965769   -0.0900
     18 C18        -7.4334    2.1068   56.1328 C.ar    1  ZINC000505965769   -0.1500
     19 C19        -7.5209    2.2124   57.5105 C.ar    1  ZINC000505965769    0.1000
     20 F20        -8.4829    1.5406   58.1803 F       1  ZINC000505965769   -0.1400
     21 C21        -6.6215    3.0067   58.2015 C.ar    1  ZINC000505965769   -0.1500
     22 C22        -5.6346    3.6891   57.5158 C.ar    1  ZINC000505965769   -0.0600
     23 C23        -3.1526    4.2147   56.1467 C.3     1  ZINC000505965769    0.0800
     24 H24        -3.2222    4.7099   57.1153 H       1  ZINC000505965769    0.0700
     25 C25        -2.7732    2.7238   56.3311 C.3     1  ZINC000505965769   -0.1500
     26 C26        -1.2310    2.8283   56.4817 C.3     1  ZINC000505965769   -0.1600
     27 C27        -0.8900    4.0091   55.5474 C.3     1  ZINC000505965769    0.0500
     28 O28        -2.0844    4.7826   55.3721 O.3     1  ZINC000505965769   -0.3700
     29 C29        -1.1043    2.7204   48.9002 C.ar    1  ZINC000505965769    0.0500
     30 Cl30       -0.0700    4.0532   49.3093 Cl      1  ZINC000505965769   -0.0200
     31 C31        -0.8929    2.0121   47.7372 C.ar    1  ZINC000505965769   -0.1600
     32 H32        -1.3547    1.8224   44.9259 H       1  ZINC000505965769    0.0600
     33 H33        -1.6884    0.2302   44.2036 H       1  ZINC000505965769    0.1100
     34 H34        -2.9767    1.1030   45.0678 H       1  ZINC000505965769    0.0600
     35 H35        -3.4101   -0.2410   48.0002 H       1  ZINC000505965769    0.1400
     36 H36        -3.7952    0.9968   50.0712 H       1  ZINC000505965769    0.1500
     37 H37        -2.9089    5.0746   51.6184 H       1  ZINC000505965769    0.1100
     38 H38        -3.4806    4.6309   49.9922 H       1  ZINC000505965769    0.1100
     39 H39        -5.4832    4.1954   50.9646 H       1  ZINC000505965769    0.1000
     40 H40        -4.7096    2.7515   51.6611 H       1  ZINC000505965769    0.1000
     41 H41        -3.8744    2.9200   53.9301 H       1  ZINC000505965769    0.4000
     42 H42        -6.3803    2.7119   54.3740 H       1  ZINC000505965769    0.1300
     43 H43        -8.1346    1.4878   55.5928 H       1  ZINC000505965769    0.1400
     44 H44        -6.6890    3.0900   59.2761 H       1  ZINC000505965769    0.1400
     45 H45        -4.9327    4.3085   58.0545 H       1  ZINC000505965769    0.1400
     46 H46        -3.2288    2.3109   57.2312 H       1  ZINC000505965769    0.0700
     47 H47        -3.0434    2.1381   55.4524 H       1  ZINC000505965769    0.1000
     48 H48        -0.9564    3.0567   57.5115 H       1  ZINC000505965769    0.0700
     49 H49        -0.7453    1.9132   56.1433 H       1  ZINC000505965769    0.0800
     50 H50        -0.1142    4.6267   56.0002 H       1  ZINC000505965769    0.0700
     51 H51        -0.5481    3.6314   54.5838 H       1  ZINC000505965769    0.0700
     52 H52        -0.0848    2.2879   47.0760 H       1  ZINC000505965769    0.1500
@<TRIPOS>BOND
     1     1     2    1
     2     1    32    1
     3     1    33    1
     4     1    34    1
     5     2     3    1
     6     3    31   ar
     7     3     4   ar
     8     4     5   ar
     9     4    35    1
    10     5     6   ar
    11     5    36    1
    12     6     7    1
    13     6    29   ar
    14     7     8    2
    15     7     9    1
    16     9    10    1
    17     9    37    1
    18     9    38    1
    19    10    11    1
    20    10    39    1
    21    10    40    1
    22    11    12    2
    23    11    13   am
    24    13    14    1
    25    13    41    1
    26    14    15    1
    27    14    16    1
    28    14    23    1
    29    16    22   ar
    30    16    17   ar
    31    17    18   ar
    32    17    42    1
    33    18    19   ar
    34    18    43    1
    35    19    20    1
    36    19    21   ar
    37    21    22   ar
    38    21    44    1
    39    22    45    1
    40    23    24    1
    41    23    28    1
    42    23    25    1
    43    25    26    1
    44    25    46    1
    45    25    47    1
    46    26    27    1
    47    26    48    1
    48    26    49    1
    49    27    28    1
    50    27    50    1
    51    27    51    1
    52    29    30    1
    53    29    31   ar
    54    31    52    1
@<TRIPOS>SUBSTRUCTURE
     1 ZINC000505965769        1 TEMP              0 ****  ****    0 ROOT


##########                                Name:    ZINC001083519372
##########                DOCK_Rotatable_Bonds:                   7
##########                         Heavy_Atoms:                  27
##########                    Molecular_Weight:             370.411
##########                DOCK_Rotatable_Bonds:                   7
##########                       Formal_Charge:           0.0399996
##########                     HBond_Acceptors:                   9
##########                        HBond_Donors:                   2
##########                         Heavy_Atoms:                  27
##########                          Grid_Score:          -35.386944
##########                     Grid_vdw_energy:          -33.797283
##########                      Grid_es_energy:           -1.589660
##########           Internal_energy_repulsive:            7.668399

@<TRIPOS>MOLECULE
ZINC001083519372
 49 52 1 0 0
SMALL
USER_CHARGES


@<TRIPOS>ATOM
      1 C1         -6.4607    1.9968   56.4274 C.3     1  ZINC001083519372   -0.1500
      2 C2         -5.7349    2.8925   55.4217 C.3     1  ZINC001083519372   -0.0100
      3 C3         -6.2101    4.3372   55.5897 C.3     1  ZINC001083519372   -0.1500
      4 C4         -4.2495    2.8207   55.6656 C.2     1  ZINC001083519372   -0.0100
      5 C5         -3.2898    3.3936   54.9205 C.2     1  ZINC001083519372   -0.0100
      6 C6         -3.5035    4.2282   53.6840 C.3     1  ZINC001083519372    0.1300
      7 N7         -2.2878    4.2024   52.8597 N.3     1  ZINC001083519372   -0.5000
      8 C8         -2.3460    3.1057   51.8597 C.3     1  ZINC001083519372    0.0300
      9 C9         -1.3098    3.5425   50.7939 C.3     1  ZINC001083519372    0.1500
     10 H10        -0.2984    3.2901   51.1128 H       1  ZINC001083519372    0.1200
     11 N11        -1.6103    2.9304   49.4973 N.am    1  ZINC001083519372   -0.6900
     12 C12        -0.6119    2.4426   48.7347 C.2     1  ZINC001083519372    0.5600
     13 O13         0.5383    2.5091   49.1235 O.2     1  ZINC001083519372   -0.5100
     14 C14        -0.9143    1.8278   47.4284 C.2     1  ZINC001083519372    0.1400
     15 C15        -0.5559    2.4526   46.2643 C.2     1  ZINC001083519372   -0.1500
     16 C16        -0.8573    1.8430   45.0391 C.2     1  ZINC001083519372    0.1800
     17 N17        -1.4756    0.6870   45.0058 N.2     1  ZINC001083519372   -0.4400
     18 C18        -1.8339    0.0609   46.1315 C.2     1  ZINC001083519372    0.2500
     19 C19        -2.4850   -1.1444   46.3710 C.2     1  ZINC001083519372   -0.2500
     20 C20        -2.5954   -1.2971   47.7431 C.2     1  ZINC001083519372    0.1000
     21 N21        -2.0502   -0.2572   48.3358 N.2     1  ZINC001083519372   -0.3100
     22 N22        -1.5569    0.6129   47.3577 N.pl3   1  ZINC001083519372   -0.3100
     23 C23        -1.4986    5.0758   50.7362 C.3     1  ZINC001083519372    0.0900
     24 H24        -0.5337    5.5721   50.6310 H       1  ZINC001083519372    0.0800
     25 O25        -2.3582    5.4292   49.6508 O.3     1  ZINC001083519372   -0.5600
     26 C26        -2.1491    5.4518   52.0804 C.3     1  ZINC001083519372    0.0100
     27 N27        -2.1042    3.0883   55.4768 N.2     1  ZINC001083519372   -0.4800
     28 C28        -2.3145    2.3520   56.5305 C.2     1  ZINC001083519372    0.1700
     29 O29        -3.6345    2.1746   56.6757 O.3     1  ZINC001083519372   -0.2000
     30 H30        -6.1222    0.9676   56.3079 H       1  ZINC001083519372    0.0600
     31 H31        -6.2420    2.3358   57.4401 H       1  ZINC001083519372    0.0600
     32 H32        -7.5351    2.0486   56.2510 H       1  ZINC001083519372    0.0700
     33 H33        -5.9535    2.5535   54.4092 H       1  ZINC001083519372    0.1000
     34 H34        -5.9913    4.6762   56.6022 H       1  ZINC001083519372    0.0600
     35 H35        -5.6929    4.9754   54.8732 H       1  ZINC001083519372    0.0600
     36 H36        -7.2845    4.3891   55.4133 H       1  ZINC001083519372    0.0700
     37 H37        -4.3387    3.8237   53.1123 H       1  ZINC001083519372    0.0900
     38 H38        -3.7248    5.2557   53.9730 H       1  ZINC001083519372    0.0600
     39 H39        -2.0563    2.1571   52.3119 H       1  ZINC001083519372    0.1000
     40 H40        -3.3419    3.0363   51.4223 H       1  ZINC001083519372    0.0600
     41 H41        -2.5280    2.8761   49.1876 H       1  ZINC001083519372    0.4300
     42 H42        -0.0470    3.4048   46.2900 H       1  ZINC001083519372    0.1800
     43 H43        -0.5787    2.3289   44.1155 H       1  ZINC001083519372    0.1900
     44 H44        -2.8408   -1.8364   45.6220 H       1  ZINC001083519372    0.1700
     45 H45        -3.0552   -2.1353   48.2455 H       1  ZINC001083519372    0.2000
     46 H46        -2.9675    6.1530   49.8512 H       1  ZINC001083519372    0.3900
     47 H47        -3.1310    5.8924   51.9073 H       1  ZINC001083519372    0.0700
     48 H48        -1.5128    6.1554   52.6170 H       1  ZINC001083519372    0.0900
     49 H49        -1.5509    1.9536   57.1820 H       1  ZINC001083519372    0.2500
@<TRIPOS>BOND
     1     1     2    1
     2     1    30    1
     3     1    31    1
     4     1    32    1
     5     2     3    1
     6     2     4    1
     7     2    33    1
     8     3    34    1
     9     3    35    1
    10     3    36    1
    11     4    29    1
    12     4     5    2
    13     5     6    1
    14     5    27    1
    15     6     7    1
    16     6    37    1
    17     6    38    1
    18     7    26    1
    19     7     8    1
    20     8     9    1
    21     8    39    1
    22     8    40    1
    23     9    10    1
    24     9    11    1
    25     9    23    1
    26    11    12   am
    27    11    41    1
    28    12    13    2
    29    12    14    1
    30    14    22    1
    31    14    15    2
    32    15    16    1
    33    15    42    1
    34    16    17    2
    35    16    43    1
    36    17    18    1
    37    18    22    1
    38    18    19    2
    39    19    20    1
    40    19    44    1
    41    20    21    2
    42    20    45    1
    43    21    22    1
    44    23    24    1
    45    23    25    1
    46    23    26    1
    47    25    46    1
    48    26    47    1
    49    26    48    1
    50    27    28    2
    51    28    29    1
    52    28    49    1
@<TRIPOS>SUBSTRUCTURE
     1 ZINC001083519372        1 TEMP              0 ****  ****    0 ROOT


##########                                Name:    ZINC000182044395
##########                DOCK_Rotatable_Bonds:                   8
##########                         Heavy_Atoms:                  28
##########                    Molecular_Weight:             398.889
##########                DOCK_Rotatable_Bonds:                   8
##########                       Formal_Charge:          -0.0399999
##########                     HBond_Acceptors:                   6
##########                        HBond_Donors:                   2
##########                         Heavy_Atoms:                  28
##########                          Grid_Score:          -35.281746
##########                     Grid_vdw_energy:          -33.494324
##########                      Grid_es_energy:           -1.787423
##########           Internal_energy_repulsive:           21.307892

@<TRIPOS>MOLECULE
ZINC000182044395
 51 53 1 0 0
SMALL
USER_CHARGES


@<TRIPOS>ATOM
      1 C1         -1.6030   -1.5567   48.1823 C.3     1  ZINC000182044395   -0.1800
      2 C2         -2.6986   -0.5542   47.8141 C.3     1  ZINC000182044395    0.0800
      3 N3         -2.1994    0.8090   48.0107 N.pl3   1  ZINC000182044395   -0.4800
      4 C4         -2.5038    1.4452   49.1493 C.2     1  ZINC000182044395    0.2500
      5 C5         -2.0733    2.7293   49.4119 C.2     1  ZINC000182044395   -0.3500
      6 C6         -2.4290    3.3935   50.6756 C.2     1  ZINC000182044395    0.5900
      7 O7         -1.5655    3.6451   51.4946 O.2     1  ZINC000182044395   -0.5600
      8 N8         -3.7116    3.7233   50.9258 N.am    1  ZINC000182044395   -0.7200
      9 C9         -4.0658    4.3847   52.1841 C.3     1  ZINC000182044395    0.1100
     10 H10        -3.4369    3.9995   52.9866 H       1  ZINC000182044395    0.0900
     11 C11        -3.8496    5.8930   52.0459 C.3     1  ZINC000182044395   -0.1600
     12 C12        -5.5350    4.1079   52.5098 C.3     1  ZINC000182044395    0.1100
     13 H13        -6.1708    4.6711   51.8267 H       1  ZINC000182044395    0.1100
     14 O14        -5.7999    2.7112   52.3650 O.3     1  ZINC000182044395   -0.5500
     15 C15        -5.8278    4.5360   53.9491 C.3     1  ZINC000182044395   -0.1100
     16 C16        -4.9654    3.7408   54.8951 C.ar    1  ZINC000182044395   -0.0800
     17 C17        -5.3478    2.4677   55.2745 C.ar    1  ZINC000182044395   -0.1000
     18 C18        -4.5569    1.7383   56.1425 C.ar    1  ZINC000182044395   -0.1200
     19 C19        -3.3832    2.2817   56.6305 C.ar    1  ZINC000182044395   -0.1200
     20 C20        -3.0032    3.5567   56.2549 C.ar    1  ZINC000182044395   -0.1200
     21 C21        -3.7922    4.2846   55.3837 C.ar    1  ZINC000182044395   -0.1200
     22 C22        -1.2576    3.4258   48.4047 C.2     1  ZINC000182044395    0.4400
     23 O23        -0.8574    4.5622   48.5869 O.2     1  ZINC000182044395   -0.4900
     24 C24        -0.9402    2.6882   47.1675 C.ar    1  ZINC000182044395   -0.1800
     25 C25        -0.1687    3.2670   46.1603 C.ar    1  ZINC000182044395   -0.0200
     26 C26         0.1032    2.5508   45.0142 C.ar    1  ZINC000182044395   -0.0700
     27 Cl27        1.0624    3.2647   43.7556 Cl      1  ZINC000182044395   -0.0500
     28 C28        -0.3867    1.2604   44.8626 C.ar    1  ZINC000182044395   -0.0500
     29 C29        -1.1495    0.6769   45.8503 C.ar    1  ZINC000182044395   -0.1600
     30 C30        -1.4368    1.3823   47.0159 C.ar    1  ZINC000182044395    0.1900
     31 H31        -1.3214   -1.4199   49.2264 H       1  ZINC000182044395    0.0700
     32 H32        -1.9745   -2.5710   48.0361 H       1  ZINC000182044395    0.0800
     33 H33        -0.7326   -1.3933   47.5469 H       1  ZINC000182044395    0.0700
     34 H34        -3.5690   -0.7176   48.4496 H       1  ZINC000182044395    0.1000
     35 H35        -2.9802   -0.6910   46.7700 H       1  ZINC000182044395    0.1100
     36 H36        -3.1063    0.9358   49.8869 H       1  ZINC000182044395    0.1800
     37 H37        -4.4002    3.5228   50.2727 H       1  ZINC000182044395    0.4100
     38 H38        -2.8030    6.0902   51.8139 H       1  ZINC000182044395    0.0600
     39 H39        -4.4786    6.2783   51.2434 H       1  ZINC000182044395    0.0600
     40 H40        -4.1132    6.3852   52.9821 H       1  ZINC000182044395    0.0600
     41 H41        -5.2145    2.1438   52.8850 H       1  ZINC000182044395    0.3700
     42 H42        -6.8784    4.3546   54.1756 H       1  ZINC000182044395    0.0800
     43 H43        -5.6095    5.5978   54.0639 H       1  ZINC000182044395    0.0800
     44 H44        -6.2645    2.0430   54.8930 H       1  ZINC000182044395    0.1200
     45 H45        -4.8559    0.7439   56.4393 H       1  ZINC000182044395    0.1200
     46 H46        -2.7653    1.7119   57.3087 H       1  ZINC000182044395    0.1200
     47 H47        -2.0885    3.9830   56.6396 H       1  ZINC000182044395    0.1200
     48 H48        -3.4935    5.2793   55.0875 H       1  ZINC000182044395    0.1200
     49 H49         0.2134    4.2704   46.2774 H       1  ZINC000182044395    0.1500
     50 H50        -0.1670    0.7081   43.9609 H       1  ZINC000182044395    0.1500
     51 H51        -1.5245   -0.3276   45.7206 H       1  ZINC000182044395    0.1500
@<TRIPOS>BOND
     1     1     2    1
     2     1    31    1
     3     1    32    1
     4     1    33    1
     5     2     3    1
     6     2    34    1
     7     2    35    1
     8     3    30    1
     9     3     4    1
    10     4     5    2
    11     4    36    1
    12     5     6    1
    13     5    22    1
    14     6     7    2
    15     6     8   am
    16     8     9    1
    17     8    37    1
    18     9    10    1
    19     9    11    1
    20     9    12    1
    21    11    38    1
    22    11    39    1
    23    11    40    1
    24    12    13    1
    25    12    14    1
    26    12    15    1
    27    14    41    1
    28    15    16    1
    29    15    42    1
    30    15    43    1
    31    16    21   ar
    32    16    17   ar
    33    17    18   ar
    34    17    44    1
    35    18    19   ar
    36    18    45    1
    37    19    20   ar
    38    19    46    1
    39    20    21   ar
    40    20    47    1
    41    21    48    1
    42    22    23    2
    43    22    24    1
    44    24    30   ar
    45    24    25   ar
    46    25    26   ar
    47    25    49    1
    48    26    27    1
    49    26    28   ar
    50    28    29   ar
    51    28    50    1
    52    29    30   ar
    53    29    51    1
@<TRIPOS>SUBSTRUCTURE
     1 ZINC000182044395        1 TEMP              0 ****  ****    0 ROOT


##########                                Name:    ZINC000980108339
##########                DOCK_Rotatable_Bonds:                   9
##########                         Heavy_Atoms:                  25
##########                    Molecular_Weight:             348.445
##########                DOCK_Rotatable_Bonds:                   9
##########                       Formal_Charge:          -0.0100001
##########                     HBond_Acceptors:                   7
##########                        HBond_Donors:                   3
##########                         Heavy_Atoms:                  25
##########                          Grid_Score:          -35.261555
##########                     Grid_vdw_energy:          -33.639889
##########                      Grid_es_energy:           -1.621667
##########           Internal_energy_repulsive:           10.144583

@<TRIPOS>MOLECULE
ZINC000980108339
 53 56 1 0 0
SMALL
USER_CHARGES


@<TRIPOS>ATOM
      1 C1         -2.3363   -0.4425   45.3767 C.3     1  ZINC000980108339    0.1200
      2 N2         -1.6510    0.2228   46.4877 N.am    1  ZINC000980108339   -0.6400
      3 C3         -0.9460    1.5106   46.4052 C.3     1  ZINC000980108339    0.1100
      4 C4         -0.4203    1.7360   47.8362 C.3     1  ZINC000980108339    0.1000
      5 H5          0.6685    1.7864   47.8403 H       1  ZINC000980108339    0.1200
      6 C6         -1.0088    2.9926   48.4241 C.2     1  ZINC000980108339    0.5000
      7 O7         -0.6105    4.0779   48.0573 O.2     1  ZINC000980108339   -0.5200
      8 N8         -1.9777    2.9105   49.3572 N.am    1  ZINC000980108339   -0.7200
      9 C9         -2.5486    4.1320   49.9299 C.3     1  ZINC000980108339    0.1300
     10 C10        -3.4944    3.7648   51.0752 C.3     1  ZINC000980108339   -0.1200
     11 H11        -3.8533    2.7374   51.0147 H       1  ZINC000980108339    0.1000
     12 C12        -2.9583    4.1493   52.4642 C.3     1  ZINC000980108339   -0.1400
     13 C13        -4.3939    4.5761   52.8134 C.3     1  ZINC000980108339    0.1200
     14 H14        -4.4462    5.4928   53.4008 H       1  ZINC000980108339    0.1100
     15 N15        -5.2079    3.4944   53.3733 N.am    1  ZINC000980108339   -0.7200
     16 C16        -6.2708    3.7835   54.1499 C.2     1  ZINC000980108339    0.5200
     17 O17        -6.5543    4.9393   54.3840 O.2     1  ZINC000980108339   -0.5300
     18 C18        -7.1071    2.6707   54.7274 C.3     1  ZINC000980108339   -0.1100
     19 C19        -7.8397    1.9443   53.5976 C.3     1  ZINC000980108339   -0.1300
     20 H20        -7.2065    1.3792   52.9136 H       1  ZINC000980108339    0.1200
     21 C21        -9.0841    2.6175   53.0151 C.3     1  ZINC000980108339   -0.1700
     22 C22        -9.2283    1.3798   53.9043 C.3     1  ZINC000980108339   -0.1200
     23 H23        -9.6201    1.5262   54.9109 H       1  ZINC000980108339    0.1000
     24 C24        -9.6227    0.0657   53.2273 C.3     1  ZINC000980108339   -0.1300
     25 C25       -10.5994    0.1419   52.0520 C.3     1  ZINC000980108339   -0.1800
     26 C26        -9.1231   -0.1717   51.8008 C.3     1  ZINC000980108339   -0.1800
     27 C27        -4.6125    4.7952   51.3053 C.3     1  ZINC000980108339   -0.1400
     28 N28        -0.8849    0.5512   48.5729 N.am    1  ZINC000980108339   -0.7200
     29 C29        -1.5722   -0.2428   47.7412 C.2     1  ZINC000980108339    0.7000
     30 O30        -2.0712   -1.2950   48.0904 O.2     1  ZINC000980108339   -0.5800
     31 H31        -2.7733   -1.3776   45.7271 H       1  ZINC000980108339    0.0900
     32 H32        -3.1246    0.2065   44.9952 H       1  ZINC000980108339    0.0600
     33 H33        -1.6208   -0.6513   44.5813 H       1  ZINC000980108339    0.0600
     34 H34        -0.1182    1.4491   45.6987 H       1  ZINC000980108339    0.1000
     35 H35        -1.6347    2.3062   46.1209 H       1  ZINC000980108339    0.0900
     36 H36        -2.2972    2.0425   49.6496 H       1  ZINC000980108339    0.4000
     37 H37        -1.7464    4.7645   50.3099 H       1  ZINC000980108339    0.0700
     38 H38        -3.1019    4.6701   49.1602 H       1  ZINC000980108339    0.0700
     39 H39        -2.6020    3.2989   53.0456 H       1  ZINC000980108339    0.0800
     40 H40        -2.2493    4.9770   52.4448 H       1  ZINC000980108339    0.1000
     41 H41        -4.9819    2.5700   53.1850 H       1  ZINC000980108339    0.4000
     42 H42        -6.4621    1.9671   55.2536 H       1  ZINC000980108339    0.1000
     43 H43        -7.8349    3.0871   55.4237 H       1  ZINC000980108339    0.1000
     44 H44        -9.3808    3.5778   53.4368 H       1  ZINC000980108339    0.0900
     45 H45        -9.2697    2.4948   51.9480 H       1  ZINC000980108339    0.1000
     46 H46        -9.6941   -0.7997   53.8862 H       1  ZINC000980108339    0.1000
     47 H47       -11.3137   -0.6735   51.9376 H       1  ZINC000980108339    0.0900
     48 H48       -10.9609    1.1282   51.7612 H       1  ZINC000980108339    0.0900
     49 H49        -8.5134    0.6082   51.3447 H       1  ZINC000980108339    0.0900
     50 H50        -8.8662   -1.1934   51.5211 H       1  ZINC000980108339    0.0900
     51 H51        -4.3558    5.7995   50.9683 H       1  ZINC000980108339    0.1000
     52 H52        -5.5904    4.4666   50.9535 H       1  ZINC000980108339    0.0800
     53 H53        -0.7230    0.3746   49.5128 H       1  ZINC000980108339    0.4400
@<TRIPOS>BOND
     1     1     2    1
     2     1    31    1
     3     1    32    1
     4     1    33    1
     5     2    29   am
     6     2     3    1
     7     3     4    1
     8     3    34    1
     9     3    35    1
    10     4     5    1
    11     4     6    1
    12     4    28    1
    13     6     7    2
    14     6     8   am
    15     8     9    1
    16     8    36    1
    17     9    10    1
    18     9    37    1
    19     9    38    1
    20    10    11    1
    21    10    27    1
    22    10    12    1
    23    12    13    1
    24    12    39    1
    25    12    40    1
    26    13    14    1
    27    13    15    1
    28    13    27    1
    29    15    16   am
    30    15    41    1
    31    16    17    2
    32    16    18    1
    33    18    19    1
    34    18    42    1
    35    18    43    1
    36    19    20    1
    37    19    22    1
    38    19    21    1
    39    21    22    1
    40    21    44    1
    41    21    45    1
    42    22    23    1
    43    22    24    1
    44    24    26    1
    45    24    25    1
    46    24    46    1
    47    25    26    1
    48    25    47    1
    49    25    48    1
    50    26    49    1
    51    26    50    1
    52    27    51    1
    53    27    52    1
    54    28    29   am
    55    28    53    1
    56    29    30    2
@<TRIPOS>SUBSTRUCTURE
     1 ZINC000980108339        1 TEMP              0 ****  ****    0 ROOT


##########                                Name:    ZINC000512699033
##########                DOCK_Rotatable_Bonds:                   9
##########                         Heavy_Atoms:                  30
##########                    Molecular_Weight:              405.54
##########                DOCK_Rotatable_Bonds:                   9
##########                       Formal_Charge:           0.0199988
##########                     HBond_Acceptors:                   5
##########                        HBond_Donors:                   2
##########                         Heavy_Atoms:                  30
##########                          Grid_Score:          -35.200325
##########                     Grid_vdw_energy:          -35.144154
##########                      Grid_es_energy:           -0.056170
##########           Internal_energy_repulsive:           13.167071

@<TRIPOS>MOLECULE
ZINC000512699033
 61 64 1 0 0
SMALL
USER_CHARGES


@<TRIPOS>ATOM
      1 O1         -4.0996    5.4885   50.1907 O.2     1  ZINC000512699033   -0.5100
      2 C2         -3.4193    4.9351   51.0286 C.2     1  ZINC000512699033    0.5200
      3 C3         -4.0198    4.5594   52.3586 C.3     1  ZINC000512699033   -0.1500
      4 C4         -5.4071    3.9527   52.1389 C.3     1  ZINC000512699033    0.1300
      5 N5         -6.0291    3.6734   53.4355 N.am    1  ZINC000512699033   -0.7300
      6 C6         -6.9867    2.7302   53.5343 C.2     1  ZINC000512699033    0.5200
      7 O7         -7.3347    2.1138   52.5496 O.2     1  ZINC000512699033   -0.5300
      8 C8         -7.6252    2.4416   54.8686 C.3     1  ZINC000512699033   -0.1100
      9 C9         -6.6159    2.7121   55.9861 C.3     1  ZINC000512699033   -0.1100
     10 C10        -7.2643    2.4191   57.3407 C.3     1  ZINC000512699033   -0.1200
     11 C11        -8.4858    3.3212   57.5273 C.3     1  ZINC000512699033   -0.1200
     12 C12        -9.4951    3.0507   56.4096 C.3     1  ZINC000512699033   -0.1200
     13 C13        -8.8468    3.3437   55.0551 C.3     1  ZINC000512699033   -0.1000
     14 N14        -2.1278    4.6513   50.7680 N.am    1  ZINC000512699033   -0.6600
     15 C15        -1.5702    5.0002   49.5330 C.ar    1  ZINC000512699033    0.1700
     16 C16        -1.3969    6.3372   49.2006 C.ar    1  ZINC000512699033   -0.1400
     17 C17        -0.8457    6.6783   47.9808 C.ar    1  ZINC000512699033   -0.1000
     18 C18        -0.4671    5.6900   47.0911 C.ar    1  ZINC000512699033   -0.1400
     19 C19        -0.6384    4.3575   47.4191 C.ar    1  ZINC000512699033   -0.0900
     20 C20        -1.1836    4.0098   48.6393 C.ar    1  ZINC000512699033   -0.1200
     21 C21        -1.3698    2.5575   48.9959 C.3     1  ZINC000512699033    0.0900
     22 N22        -0.5134    1.7287   48.1370 N.3     1  ZINC000512699033   -0.4700
     23 C23         0.9070    1.8475   48.5319 C.3     1  ZINC000512699033    0.0500
     24 C24         1.4768    0.4575   48.1671 C.3     1  ZINC000512699033   -0.0900
     25 C25         0.2544   -0.4360   48.2354 C.ar    1  ZINC000512699033   -0.1400
     26 C26         0.1261   -1.8072   48.3007 C.ar    1  ZINC000512699033   -0.0800
     27 C27        -1.1300   -2.3841   48.3609 C.ar    1  ZINC000512699033   -0.1400
     28 C28        -2.2569   -1.5830   48.3556 C.ar    1  ZINC000512699033   -0.0900
     29 C29        -2.1340   -0.2106   48.2881 C.ar    1  ZINC000512699033   -0.1400
     30 C30        -0.8724    0.3779   48.2242 C.ar    1  ZINC000512699033    0.0900
     31 H31        -3.3787    3.8301   52.8538 H       1  ZINC000512699033    0.1100
     32 H32        -4.1071    5.4491   52.9823 H       1  ZINC000512699033    0.1000
     33 H33        -6.0271    4.6557   51.5824 H       1  ZINC000512699033    0.0800
     34 H34        -5.3127    3.0254   51.5738 H       1  ZINC000512699033    0.0800
     35 H35        -5.7516    4.1672   54.2229 H       1  ZINC000512699033    0.4000
     36 H36        -7.9358    1.3974   54.9044 H       1  ZINC000512699033    0.1000
     37 H37        -5.7457    2.0695   55.8532 H       1  ZINC000512699033    0.0700
     38 H38        -6.3054    3.7563   55.9503 H       1  ZINC000512699033    0.0700
     39 H39        -7.5748    1.3749   57.3766 H       1  ZINC000512699033    0.0600
     40 H40        -6.5453    2.6118   58.1369 H       1  ZINC000512699033    0.0700
     41 H41        -8.9477    3.1125   58.4923 H       1  ZINC000512699033    0.0600
     42 H42        -8.1752    4.3654   57.4914 H       1  ZINC000512699033    0.0600
     43 H43        -9.8057    2.0065   56.4455 H       1  ZINC000512699033    0.0600
     44 H44       -10.3653    3.6935   56.5426 H       1  ZINC000512699033    0.0700
     45 H45        -8.5361    4.3879   55.0193 H       1  ZINC000512699033    0.0700
     46 H46        -9.5658    3.1510   54.2589 H       1  ZINC000512699033    0.0700
     47 H47        -1.5849    4.2051   51.4366 H       1  ZINC000512699033    0.4200
     48 H48        -1.6931    7.1096   49.8950 H       1  ZINC000512699033    0.1500
     49 H49        -0.7107    7.7180   47.7218 H       1  ZINC000512699033    0.1300
     50 H50        -0.0371    5.9594   46.1377 H       1  ZINC000512699033    0.1200
     51 H51        -0.3416    3.5879   46.7220 H       1  ZINC000512699033    0.1200
     52 H52        -1.0969    2.4019   50.0397 H       1  ZINC000512699033    0.0600
     53 H53        -2.4127    2.2778   48.8474 H       1  ZINC000512699033    0.0900
     54 H54         1.4032    2.6312   47.9595 H       1  ZINC000512699033    0.1000
     55 H55         0.9965    2.0333   49.6022 H       1  ZINC000512699033    0.0600
     56 H56         1.8946    0.4637   47.1603 H       1  ZINC000512699033    0.0900
     57 H57         2.2253    0.1439   48.8949 H       1  ZINC000512699033    0.0800
     58 H58         1.0071   -2.4318   48.3047 H       1  ZINC000512699033    0.1200
     59 H59        -1.2301   -3.4582   48.4113 H       1  ZINC000512699033    0.1300
     60 H60        -3.2372   -2.0335   48.4042 H       1  ZINC000512699033    0.1300
     61 H61        -3.0183    0.4096   48.2841 H       1  ZINC000512699033    0.1200
@<TRIPOS>BOND
     1     1     2    2
     2     2     3    1
     3     2    14   am
     4     3     4    1
     5     3    31    1
     6     3    32    1
     7     4     5    1
     8     4    33    1
     9     4    34    1
    10     5     6   am
    11     5    35    1
    12     6     7    2
    13     6     8    1
    14     8    13    1
    15     8     9    1
    16     8    36    1
    17     9    10    1
    18     9    37    1
    19     9    38    1
    20    10    11    1
    21    10    39    1
    22    10    40    1
    23    11    12    1
    24    11    41    1
    25    11    42    1
    26    12    13    1
    27    12    43    1
    28    12    44    1
    29    13    45    1
    30    13    46    1
    31    14    15    1
    32    14    47    1
    33    15    20   ar
    34    15    16   ar
    35    16    17   ar
    36    16    48    1
    37    17    18   ar
    38    17    49    1
    39    18    19   ar
    40    18    50    1
    41    19    20   ar
    42    19    51    1
    43    20    21    1
    44    21    22    1
    45    21    52    1
    46    21    53    1
    47    22    30    1
    48    22    23    1
    49    23    24    1
    50    23    54    1
    51    23    55    1
    52    24    25    1
    53    24    56    1
    54    24    57    1
    55    25    30   ar
    56    25    26   ar
    57    26    27   ar
    58    26    58    1
    59    27    28   ar
    60    27    59    1
    61    28    29   ar
    62    28    60    1
    63    29    30   ar
    64    29    61    1
@<TRIPOS>SUBSTRUCTURE
     1 ZINC000512699033        1 TEMP              0 ****  ****    0 ROOT


##########                                Name:    ZINC000824084043
##########                DOCK_Rotatable_Bonds:                  11
##########                         Heavy_Atoms:                  27
##########                    Molecular_Weight:             382.547
##########                DOCK_Rotatable_Bonds:                  11
##########                       Formal_Charge:        -6.85453e-07
##########                     HBond_Acceptors:                   7
##########                        HBond_Donors:                   3
##########                         Heavy_Atoms:                  27
##########                          Grid_Score:          -35.172508
##########                     Grid_vdw_energy:          -32.646847
##########                      Grid_es_energy:           -2.525663
##########           Internal_energy_repulsive:           22.825581

@<TRIPOS>MOLECULE
ZINC000824084043
 65 66 1 0 0
SMALL
USER_CHARGES


@<TRIPOS>ATOM
      1 C1          0.2564    1.3303   44.8326 C.3     1  ZINC000824084043   -0.1400
      2 C2         -1.0488    1.3747   45.6297 C.3     1  ZINC000824084043   -0.1000
      3 C3         -2.1500    0.6586   44.8453 C.3     1  ZINC000824084043   -0.1300
      4 C4         -0.8473    0.6785   46.9772 C.3     1  ZINC000824084043    0.1700
      5 H5         -0.5525   -0.3575   46.8104 H       1  ZINC000824084043    0.0700
      6 C6          0.2478    1.3999   47.7653 C.3     1  ZINC000824084043   -0.1400
      7 C7         -0.0287    2.9047   47.7622 C.3     1  ZINC000824084043    0.1300
      8 N8          0.6446    3.5273   48.9047 N.am    1  ZINC000824084043   -0.6200
      9 C9          2.1049    3.6435   48.9201 C.3     1  ZINC000824084043    0.0800
     10 C10        -0.0794    3.9932   49.9416 C.2     1  ZINC000824084043    0.7000
     11 O11         0.4793    4.5086   50.8905 O.2     1  ZINC000824084043   -0.5800
     12 N12        -1.4230    3.8878   49.9266 N.am    1  ZINC000824084043   -0.7500
     13 C13        -2.2100    4.3926   51.0544 C.3     1  ZINC000824084043    0.1600
     14 C14        -3.6604    4.6066   50.6117 C.3     1  ZINC000824084043   -0.1600
     15 C15        -4.4934    5.0576   51.8134 C.3     1  ZINC000824084043   -0.0100
     16 N16        -4.4463    4.0292   52.8597 N.4     1  ZINC000824084043   -0.3800
     17 H17        -4.7739    3.1524   52.4830 H       1  ZINC000824084043    0.4200
     18 C18        -5.3081    4.4319   53.9792 C.3     1  ZINC000824084043    0.0000
     19 C19        -6.7624    4.0853   53.6536 C.3     1  ZINC000824084043   -0.1200
     20 C20        -6.9521    2.5495   53.5889 C.3     1  ZINC000824084043   -0.1400
     21 C21        -8.4665    2.3803   53.8667 C.3     1  ZINC000824084043   -0.1200
     22 C22        -8.7772    3.4496   54.9343 C.3     1  ZINC000824084043   -0.1300
     23 C23        -7.6936    4.5338   54.7988 C.3     1  ZINC000824084043   -0.1100
     24 C24        -3.0684    3.8697   53.3396 C.3     1  ZINC000824084043    0.0000
     25 C25        -2.1805    3.3729   52.1966 C.3     1  ZINC000824084043   -0.1600
     26 N26        -2.0995    0.7136   47.7370 N.am    1  ZINC000824084043   -0.7800
     27 C27        -2.4355   -0.3228   48.5304 C.2     1  ZINC000824084043    0.6600
     28 O28        -3.4801   -0.2929   49.1658 O.co2   1  ZINC000824084043   -0.7200
     29 O29        -1.6957   -1.2932   48.6149 O.co2   1  ZINC000824084043   -0.7300
     30 H30         0.1129    1.8263   43.8727 H       1  ZINC000824084043    0.0500
     31 H31         1.0410    1.8404   45.3915 H       1  ZINC000824084043    0.0500
     32 H32         0.5451    0.2926   44.6659 H       1  ZINC000824084043    0.0500
     33 H33        -1.3375    2.4125   45.7966 H       1  ZINC000824084043    0.0500
     34 H34        -1.8613   -0.3791   44.6786 H       1  ZINC000824084043    0.0600
     35 H35        -3.0799    0.6903   45.4132 H       1  ZINC000824084043    0.0700
     36 H36        -2.2936    1.1546   43.8854 H       1  ZINC000824084043    0.0300
     37 H37         0.2573    1.0344   48.7921 H       1  ZINC000824084043    0.0700
     38 H38         1.2155    1.2074   47.3022 H       1  ZINC000824084043    0.0600
     39 H39         0.3471    3.3413   46.8369 H       1  ZINC000824084043    0.0900
     40 H40        -1.1026    3.0769   47.8354 H       1  ZINC000824084043    0.0900
     41 H41         2.3990    4.5890   48.4644 H       1  ZINC000824084043    0.0600
     42 H42         2.4613    3.6099   49.9496 H       1  ZINC000824084043    0.0600
     43 H43         2.5410    2.8179   48.3575 H       1  ZINC000824084043    0.0800
     44 H44        -1.8689    3.4777   49.1690 H       1  ZINC000824084043    0.4000
     45 H45        -1.7895    5.3375   51.3983 H       1  ZINC000824084043    0.1100
     46 H46        -3.6951    5.3723   49.8367 H       1  ZINC000824084043    0.1200
     47 H47        -4.0628    3.6725   50.2198 H       1  ZINC000824084043    0.0900
     48 H48        -4.0903    5.9918   52.2043 H       1  ZINC000824084043    0.1300
     49 H49        -5.5266    5.2111   51.5016 H       1  ZINC000824084043    0.1300
     50 H50        -5.0019    3.9032   54.8818 H       1  ZINC000824084043    0.1300
     51 H51        -5.2177    5.5063   54.1391 H       1  ZINC000824084043    0.1300
     52 H52        -7.0628    4.5488   52.7138 H       1  ZINC000824084043    0.1000
     53 H53        -6.6960    2.1699   52.5998 H       1  ZINC000824084043    0.0700
     54 H54        -6.3605    2.0544   54.3590 H       1  ZINC000824084043    0.0800
     55 H55        -9.0436    2.5664   52.9609 H       1  ZINC000824084043    0.0700
     56 H56        -8.6741    1.3828   54.2542 H       1  ZINC000824084043    0.0800
     57 H57        -9.7618    3.8813   54.7548 H       1  ZINC000824084043    0.0700
     58 H58        -8.7391    3.0060   55.9291 H       1  ZINC000824084043    0.0700
     59 H59        -7.1297    4.6163   55.7279 H       1  ZINC000824084043    0.0700
     60 H60        -8.1524    5.4916   54.5535 H       1  ZINC000824084043    0.0800
     61 H61        -2.6956    4.8292   53.6981 H       1  ZINC000824084043    0.1300
     62 H62        -3.0495    3.1461   54.1546 H       1  ZINC000824084043    0.1300
     63 H63        -2.5522    2.4133   51.8376 H       1  ZINC000824084043    0.0900
     64 H64        -1.1575    3.2568   52.5546 H       1  ZINC000824084043    0.1200
     65 H65        -2.6867    1.4826   47.6689 H       1  ZINC000824084043    0.3600
@<TRIPOS>BOND
     1     1     2    1
     2     1    30    1
     3     1    31    1
     4     1    32    1
     5     2     3    1
     6     2     4    1
     7     2    33    1
     8     3    34    1
     9     3    35    1
    10     3    36    1
    11     4     5    1
    12     4     6    1
    13     4    26    1
    14     6     7    1
    15     6    37    1
    16     6    38    1
    17     7     8    1
    18     7    39    1
    19     7    40    1
    20     8     9    1
    21     8    10   am
    22     9    41    1
    23     9    42    1
    24     9    43    1
    25    10    11    2
    26    10    12   am
    27    12    13    1
    28    12    44    1
    29    13    25    1
    30    13    14    1
    31    13    45    1
    32    14    15    1
    33    14    46    1
    34    14    47    1
    35    15    16    1
    36    15    48    1
    37    15    49    1
    38    16    17    1
    39    16    18    1
    40    16    24    1
    41    18    19    1
    42    18    50    1
    43    18    51    1
    44    19    23    1
    45    19    20    1
    46    19    52    1
    47    20    21    1
    48    20    53    1
    49    20    54    1
    50    21    22    1
    51    21    55    1
    52    21    56    1
    53    22    23    1
    54    22    57    1
    55    22    58    1
    56    23    59    1
    57    23    60    1
    58    24    25    1
    59    24    61    1
    60    24    62    1
    61    25    63    1
    62    25    64    1
    63    26    27   am
    64    26    65    1
    65    27    28   ar
    66    27    29   ar
@<TRIPOS>SUBSTRUCTURE
     1 ZINC000824084043        1 TEMP              0 ****  ****    0 ROOT


##########                                Name:    ZINC001109848453
##########                DOCK_Rotatable_Bonds:                   8
##########                         Heavy_Atoms:                  24
##########                    Molecular_Weight:             328.337
##########                DOCK_Rotatable_Bonds:                   8
##########                       Formal_Charge:          0.00999966
##########                     HBond_Acceptors:                  11
##########                        HBond_Donors:                   2
##########                         Heavy_Atoms:                  24
##########                          Grid_Score:          -34.987522
##########                     Grid_vdw_energy:          -32.653641
##########                      Grid_es_energy:           -2.333882
##########           Internal_energy_repulsive:            7.393500

@<TRIPOS>MOLECULE
ZINC001109848453
 40 43 1 0 0
SMALL
USER_CHARGES


@<TRIPOS>ATOM
      1 O1          2.1458    4.8441   46.9202 O.2     1  ZINC001109848453   -0.5000
      2 C2          1.0171    4.7575   46.4850 C.2     1  ZINC001109848453    0.5000
      3 C3          0.6817    5.3446   45.1382 C.3     1  ZINC001109848453    0.1100
      4 N4          0.6300    4.2751   44.1384 N.pl3   1  ZINC001109848453   -0.3700
      5 C5          0.7865    4.4061   42.8097 C.2     1  ZINC001109848453    0.2600
      6 N6          0.6713    3.2205   42.2685 N.2     1  ZINC001109848453   -0.5400
      7 C7          0.4419    2.3118   43.2156 C.2     1  ZINC001109848453    0.2000
      8 N8          0.4130    2.9084   44.3782 N.2     1  ZINC001109848453   -0.2900
      9 N9          0.0640    4.1313   47.2034 N.am    1  ZINC001109848453   -0.7300
     10 C10         0.3900    3.5605   48.5126 C.3     1  ZINC001109848453    0.1700
     11 H11         1.4525    3.6971   48.7142 H       1  ZINC001109848453    0.1000
     12 C12         0.0584    2.0669   48.5147 C.3     1  ZINC001109848453    0.1200
     13 N13        -1.3385    1.8763   48.1161 N.pl3   1  ZINC001109848453   -0.6800
     14 C14        -1.6869    0.8127   47.3002 C.2     1  ZINC001109848453    0.4900
     15 N15        -2.1868    1.0311   46.0993 N.2     1  ZINC001109848453   -0.5300
     16 C16        -2.5274    0.0169   45.3001 C.2     1  ZINC001109848453    0.1400
     17 C17        -2.3748   -1.2663   45.6874 C.2     1  ZINC001109848453   -0.0500
     18 N18        -1.8612   -1.5505   46.9221 N.pl3   1  ZINC001109848453   -0.1800
     19 N19        -1.6041   -2.6386   47.5571 N.2     1  ZINC001109848453   -0.1000
     20 N20        -1.1188   -2.3506   48.7149 N.2     1  ZINC001109848453   -0.0400
     21 N21        -1.0496   -1.0701   48.8584 N.2     1  ZINC001109848453   -0.2600
     22 C22        -1.5043   -0.5179   47.7448 C.2     1  ZINC001109848453    0.1000
     23 C23        -0.4293    4.2663   49.5951 C.3     1  ZINC001109848453   -0.1800
     24 C24         0.3004    4.6845   50.8732 C.3     1  ZINC001109848453   -0.1700
     25 C25        -0.1302    5.7438   49.8566 C.3     1  ZINC001109848453   -0.1700
     26 H26        -0.2873    5.8413   45.1894 H       1  ZINC001109848453    0.1300
     27 H27         1.4465    6.0685   44.8567 H       1  ZINC001109848453    0.1200
     28 H28         0.9741    5.3290   42.2810 H       1  ZINC001109848453    0.2200
     29 H29         0.3061    1.2532   43.0499 H       1  ZINC001109848453    0.2200
     30 H30        -0.8378    4.0587   46.8535 H       1  ZINC001109848453    0.4000
     31 H31         0.7107    1.5488   47.8117 H       1  ZINC001109848453    0.1000
     32 H32         0.2090    1.6627   49.5157 H       1  ZINC001109848453    0.0900
     33 H33        -2.0193    2.4951   48.4236 H       1  ZINC001109848453    0.4200
     34 H34        -2.9343    0.2286   44.3222 H       1  ZINC001109848453    0.2000
     35 H35        -2.6585   -2.0687   45.0226 H       1  ZINC001109848453    0.1900
     36 H36        -1.4642    3.9378   49.6904 H       1  ZINC001109848453    0.1100
     37 H37        -0.2545    4.6309   51.8099 H       1  ZINC001109848453    0.1000
     38 H38         1.3640    4.4568   50.9429 H       1  ZINC001109848453    0.1000
     39 H39         0.6503    6.2130   49.2576 H       1  ZINC001109848453    0.1200
     40 H40        -0.9682    6.3872   50.1245 H       1  ZINC001109848453    0.0900
@<TRIPOS>BOND
     1     1     2    2
     2     2     3    1
     3     2     9   am
     4     3     4    1
     5     3    26    1
     6     3    27    1
     7     4     8    1
     8     4     5    1
     9     5     6    2
    10     5    28    1
    11     6     7    1
    12     7     8    2
    13     7    29    1
    14     9    10    1
    15     9    30    1
    16    10    11    1
    17    10    12    1
    18    10    23    1
    19    12    13    1
    20    12    31    1
    21    12    32    1
    22    13    14    1
    23    13    33    1
    24    14    22    1
    25    14    15    2
    26    15    16    1
    27    16    17    2
    28    16    34    1
    29    17    18    1
    30    17    35    1
    31    18    22    1
    32    18    19    1
    33    19    20    2
    34    20    21    1
    35    21    22    2
    36    23    25    1
    37    23    24    1
    38    23    36    1
    39    24    25    1
    40    24    37    1
    41    24    38    1
    42    25    39    1
    43    25    40    1
@<TRIPOS>SUBSTRUCTURE
     1 ZINC001109848453        1 TEMP              0 ****  ****    0 ROOT


##########                                Name:    ZINC000033150761
##########                DOCK_Rotatable_Bonds:                   7
##########                         Heavy_Atoms:                  29
##########                    Molecular_Weight:             413.407
##########                DOCK_Rotatable_Bonds:                   7
##########                       Formal_Charge:          0.00999993
##########                     HBond_Acceptors:                  10
##########                        HBond_Donors:                   1
##########                         Heavy_Atoms:                  29
##########                          Grid_Score:          -34.959095
##########                     Grid_vdw_energy:          -33.527981
##########                      Grid_es_energy:           -1.431113
##########           Internal_energy_repulsive:            7.160302

@<TRIPOS>MOLECULE
ZINC000033150761
 42 45 1 0 0
SMALL
USER_CHARGES


@<TRIPOS>ATOM
      1 O1         -4.1039    5.5121   51.7352 O.2     1  ZINC000033150761   -0.5000
      2 C2         -4.7093    4.5621   52.1847 C.2     1  ZINC000033150761    0.5200
      3 C3         -5.9108    4.7833   53.0671 C.3     1  ZINC000033150761   -0.1300
      4 C4         -5.8888    3.7779   54.2202 C.3     1  ZINC000033150761   -0.0100
      5 C5         -7.1471    2.9493   54.1883 C.2     1  ZINC000033150761    0.1800
      6 N6         -7.4463    2.0226   53.3125 N.2     1  ZINC000033150761   -0.4400
      7 C7         -8.6613    1.5558   53.6785 C.2     1  ZINC000033150761    0.2200
      8 C8         -9.4372    0.4885   52.9976 C.ar    1  ZINC000033150761    0.1900
      9 C9        -10.6904    0.1283   53.4852 C.ar    1  ZINC000033150761   -0.1300
     10 C10       -11.4026   -0.8690   52.8396 C.ar    1  ZINC000033150761   -0.0700
     11 C11       -10.8359   -1.4725   51.7270 C.ar    1  ZINC000033150761   -0.1500
     12 C12        -9.5856   -1.0645   51.2971 C.ar    1  ZINC000033150761    0.1100
     13 N13        -8.9327   -0.1097   51.9267 N.ar    1  ZINC000033150761   -0.4500
     14 N14        -9.0251    2.2197   54.7442 N.2     1  ZINC000033150761   -0.3600
     15 O15        -8.1651    3.0178   55.0519 O.3     1  ZINC000033150761    0.0900
     16 N16        -4.3110    3.3086   51.8905 N.am    1  ZINC000033150761   -0.6200
     17 C17        -3.2032    3.1046   51.0769 C.2     1  ZINC000033150761    0.2700
     18 N18        -3.2056    2.4493   49.9581 N.2     1  ZINC000033150761   -0.5000
     19 C19        -2.0514    2.3554   49.3130 C.2     1  ZINC000033150761    0.1200
     20 C20        -1.9201    1.6338   48.0237 C.ar    1  ZINC000033150761    0.0000
     21 C21        -1.3381    2.2647   46.9260 C.ar    1  ZINC000033150761   -0.0800
     22 C22        -1.2171    1.5902   45.7278 C.ar    1  ZINC000033150761   -0.1200
     23 C23        -1.6728    0.2878   45.6144 C.ar    1  ZINC000033150761    0.0700
     24 F24        -1.5521   -0.3683   44.4397 F       1  ZINC000033150761   -0.1300
     25 C25        -2.2528   -0.3458   46.7044 C.ar    1  ZINC000033150761    0.0700
     26 F26        -2.6956   -1.6170   46.5892 F       1  ZINC000033150761   -0.1300
     27 C27        -2.3733    0.3206   47.9086 C.ar    1  ZINC000033150761   -0.1000
     28 C28        -1.0076    2.9600   49.9080 C.2     1  ZINC000033150761   -0.2800
     29 S29        -1.5786    3.7022   51.4007 S.3     1  ZINC000033150761    0.2200
     30 H30        -5.8855    5.7967   53.4681 H       1  ZINC000033150761    0.1200
     31 H31        -6.8208    4.6463   52.4830 H       1  ZINC000033150761    0.1200
     32 H32        -5.0215    3.1258   54.1171 H       1  ZINC000033150761    0.1300
     33 H33        -5.8301    4.3132   55.1679 H       1  ZINC000033150761    0.1200
     34 H34       -11.1014    0.6194   54.3549 H       1  ZINC000033150761    0.1400
     35 H35       -12.3770   -1.1700   53.1949 H       1  ZINC000033150761    0.1500
     36 H36       -11.3651   -2.2536   51.2013 H       1  ZINC000033150761    0.1400
     37 H37        -9.1411   -1.5321   50.4311 H       1  ZINC000033150761    0.1700
     38 H38        -4.7976    2.5489   52.2469 H       1  ZINC000033150761    0.4300
     39 H39        -0.9825    3.2808   47.0125 H       1  ZINC000033150761    0.1400
     40 H40        -0.7664    2.0795   44.8770 H       1  ZINC000033150761    0.1500
     41 H41        -2.8246   -0.1724   48.7570 H       1  ZINC000033150761    0.1600
     42 H42         0.0049    2.9893   49.5332 H       1  ZINC000033150761    0.1800
@<TRIPOS>BOND
     1     1     2    2
     2     2     3    1
     3     2    16   am
     4     3     4    1
     5     3    30    1
     6     3    31    1
     7     4     5    1
     8     4    32    1
     9     4    33    1
    10     5    15    1
    11     5     6    2
    12     6     7    1
    13     7     8    1
    14     7    14    2
    15     8    13   ar
    16     8     9   ar
    17     9    10   ar
    18     9    34    1
    19    10    11   ar
    20    10    35    1
    21    11    12   ar
    22    11    36    1
    23    12    13   ar
    24    12    37    1
    25    14    15    1
    26    16    17    1
    27    16    38    1
    28    17    29    1
    29    17    18    2
    30    18    19    1
    31    19    20    1
    32    19    28    2
    33    20    27   ar
    34    20    21   ar
    35    21    22   ar
    36    21    39    1
    37    22    23   ar
    38    22    40    1
    39    23    24    1
    40    23    25   ar
    41    25    26    1
    42    25    27   ar
    43    27    41    1
    44    28    29    1
    45    28    42    1
@<TRIPOS>SUBSTRUCTURE
     1 ZINC000033150761        1 TEMP              0 ****  ****    0 ROOT


##########                                Name:    ZINC000375302598
##########                DOCK_Rotatable_Bonds:                   8
##########                         Heavy_Atoms:                  27
##########                    Molecular_Weight:             368.479
##########                DOCK_Rotatable_Bonds:                   8
##########                       Formal_Charge:               -0.02
##########                     HBond_Acceptors:                   6
##########                        HBond_Donors:                   1
##########                         Heavy_Atoms:                  27
##########                          Grid_Score:          -34.898952
##########                     Grid_vdw_energy:          -34.698280
##########                      Grid_es_energy:           -0.200674
##########           Internal_energy_repulsive:           10.131204

@<TRIPOS>MOLECULE
ZINC000375302598
 55 58 1 0 0
SMALL
USER_CHARGES


@<TRIPOS>ATOM
      1 C1         -1.0265   -2.4780   48.2788 C.3     1  ZINC000375302598   -0.1500
      2 C2         -1.9432   -1.3656   47.7658 C.3     1  ZINC000375302598   -0.0300
      3 C3         -1.4562   -0.0358   48.2810 C.2     1  ZINC000375302598    0.1800
      4 N4         -2.1905    0.9132   48.8099 N.2     1  ZINC000375302598   -0.4700
      5 C5         -1.3344    1.9031   49.1199 C.2     1  ZINC000375302598    0.1800
      6 C6         -1.6890    3.2223   49.7564 C.3     1  ZINC000375302598    0.1500
      7 N7         -1.0209    3.3323   51.0601 N.3     1  ZINC000375302598   -0.5300
      8 C8         -0.0010    4.3886   51.0413 C.3     1  ZINC000375302598    0.0500
      9 C9          0.7711    4.3775   52.3625 C.3     1  ZINC000375302598   -0.1100
     10 C10        -0.2048    4.6050   53.5203 C.3     1  ZINC000375302598   -0.1300
     11 C11        -1.2844    3.5196   53.4883 C.3     1  ZINC000375302598    0.1500
     12 H12        -0.8225    2.5426   53.6306 H       1  ZINC000375302598    0.1000
     13 N13        -2.2543    3.7627   54.5589 N.am    1  ZINC000375302598   -0.7300
     14 C14        -2.2130    3.0247   55.6860 C.2     1  ZINC000375302598    0.5200
     15 O15        -1.3739    2.1584   55.8131 O.2     1  ZINC000375302598   -0.5300
     16 C16        -3.2096    3.2760   56.7880 C.3     1  ZINC000375302598   -0.1100
     17 C17        -4.5699    3.6187   56.1772 C.3     1  ZINC000375302598   -0.1200
     18 H18        -4.5396    4.2303   55.2754 H       1  ZINC000375302598    0.1200
     19 C19        -5.7415    3.8334   57.1375 C.3     1  ZINC000375302598   -0.1700
     20 C20        -5.6760    2.5667   56.2805 C.3     1  ZINC000375302598   -0.1100
     21 H21        -5.4348    1.6304   56.7839 H       1  ZINC000375302598    0.1100
     22 C22        -6.6409    2.4553   55.1284 C.ar    1  ZINC000375302598   -0.0500
     23 C23        -6.2633    2.8774   53.8673 C.ar    1  ZINC000375302598   -0.1200
     24 C24        -7.1485    2.7752   52.8104 C.ar    1  ZINC000375302598   -0.1200
     25 C25        -8.4109    2.2504   53.0144 C.ar    1  ZINC000375302598   -0.1300
     26 C26        -8.7882    1.8275   54.2753 C.ar    1  ZINC000375302598   -0.1200
     27 C27        -7.9015    1.9257   55.3313 C.ar    1  ZINC000375302598   -0.1100
     28 C28        -1.9969    3.5555   52.1344 C.3     1  ZINC000375302598    0.0500
     29 N29        -0.1453    1.5129   48.7702 N.2     1  ZINC000375302598   -0.3800
     30 O30        -0.1927    0.3994   48.2915 O.3     1  ZINC000375302598    0.0800
     31 H31        -1.0378   -2.4845   49.3687 H       1  ZINC000375302598    0.0600
     32 H32        -1.3787   -3.4398   47.9060 H       1  ZINC000375302598    0.0800
     33 H33        -0.0099   -2.3022   47.9271 H       1  ZINC000375302598    0.0600
     34 H34        -1.9317   -1.3591   46.6758 H       1  ZINC000375302598    0.1100
     35 H35        -2.9598   -1.5414   48.1175 H       1  ZINC000375302598    0.1000
     36 H36        -1.3618    4.0370   49.1105 H       1  ZINC000375302598    0.0700
     37 H37        -2.7686    3.2801   49.8954 H       1  ZINC000375302598    0.1100
     38 H38         0.6889    4.2126   50.2159 H       1  ZINC000375302598    0.0800
     39 H39        -0.4836    5.3571   50.9108 H       1  ZINC000375302598    0.0400
     40 H40         1.2653    3.4140   52.4871 H       1  ZINC000375302598    0.0700
     41 H41         1.5177    5.1717   52.3544 H       1  ZINC000375302598    0.0700
     42 H42         0.3343    4.5547   54.4664 H       1  ZINC000375302598    0.0700
     43 H43        -0.6704    5.5851   53.4169 H       1  ZINC000375302598    0.0600
     44 H44        -2.9261    4.4548   54.4568 H       1  ZINC000375302598    0.4000
     45 H45        -3.3030    2.3817   57.4042 H       1  ZINC000375302598    0.1000
     46 H46        -2.8681    4.1077   57.4042 H       1  ZINC000375302598    0.1000
     47 H47        -5.5433    3.7305   58.2043 H       1  ZINC000375302598    0.1000
     48 H48        -6.4824    4.5859   56.8672 H       1  ZINC000375302598    0.1000
     49 H49        -5.2769    3.2874   53.7079 H       1  ZINC000375302598    0.1200
     50 H50        -6.8537    3.1056   51.8254 H       1  ZINC000375302598    0.1200
     51 H51        -9.1027    2.1712   52.1888 H       1  ZINC000375302598    0.1200
     52 H52        -9.7746    1.4179   54.4347 H       1  ZINC000375302598    0.1200
     53 H53        -8.1963    1.5953   56.3164 H       1  ZINC000375302598    0.1200
     54 H54        -2.4702    4.5280   51.9987 H       1  ZINC000375302598    0.0400
     55 H55        -2.7566    2.7745   52.1029 H       1  ZINC000375302598    0.0900
@<TRIPOS>BOND
     1     1     2    1
     2     1    31    1
     3     1    32    1
     4     1    33    1
     5     2     3    1
     6     2    34    1
     7     2    35    1
     8     3    30    1
     9     3     4    2
    10     4     5    1
    11     5     6    1
    12     5    29    2
    13     6     7    1
    14     6    36    1
    15     6    37    1
    16     7    28    1
    17     7     8    1
    18     8     9    1
    19     8    38    1
    20     8    39    1
    21     9    10    1
    22     9    40    1
    23     9    41    1
    24    10    11    1
    25    10    42    1
    26    10    43    1
    27    11    12    1
    28    11    13    1
    29    11    28    1
    30    13    14   am
    31    13    44    1
    32    14    15    2
    33    14    16    1
    34    16    17    1
    35    16    45    1
    36    16    46    1
    37    17    18    1
    38    17    20    1
    39    17    19    1
    40    19    20    1
    41    19    47    1
    42    19    48    1
    43    20    21    1
    44    20    22    1
    45    22    27   ar
    46    22    23   ar
    47    23    24   ar
    48    23    49    1
    49    24    25   ar
    50    24    50    1
    51    25    26   ar
    52    25    51    1
    53    26    27   ar
    54    26    52    1
    55    27    53    1
    56    28    54    1
    57    28    55    1
    58    29    30    1
@<TRIPOS>SUBSTRUCTURE
     1 ZINC000375302598        1 TEMP              0 ****  ****    0 ROOT


##########                                Name:    ZINC000150894060
##########                DOCK_Rotatable_Bonds:                  10
##########                         Heavy_Atoms:                  27
##########                    Molecular_Weight:              366.42
##########                DOCK_Rotatable_Bonds:                  10
##########                       Formal_Charge:        -6.70552e-07
##########                     HBond_Acceptors:                   7
##########                        HBond_Donors:                   2
##########                         Heavy_Atoms:                  27
##########                          Grid_Score:          -34.893192
##########                     Grid_vdw_energy:          -33.698231
##########                      Grid_es_energy:           -1.194963
##########           Internal_energy_repulsive:           10.584643

@<TRIPOS>MOLECULE
ZINC000150894060
 49 51 1 0 0
SMALL
USER_CHARGES


@<TRIPOS>ATOM
      1 C1        -10.5063    0.5474   55.1085 C.3     1  ZINC000150894060   -0.1000
      2 C2         -9.9075    0.4317   53.7304 C.2     1  ZINC000150894060   -0.0800
      3 C3         -8.8920    1.1864   53.2170 C.2     1  ZINC000150894060   -0.1000
      4 C4         -8.1826    2.2646   53.9134 C.2     1  ZINC000150894060    0.6100
      5 O5         -8.3754    2.4526   55.1001 O.2     1  ZINC000150894060   -0.5100
      6 N6         -7.3172    3.0473   53.2390 N.am    1  ZINC000150894060   -0.7200
      7 C7         -6.6071    4.1233   53.9350 C.3     1  ZINC000150894060    0.1200
      8 C8         -6.2604    5.2325   52.9399 C.3     1  ZINC000150894060   -0.1500
      9 C9         -4.7409    5.3216   52.7846 C.3     1  ZINC000150894060    0.1200
     10 N10        -4.3166    4.4963   51.6509 N.am    1  ZINC000150894060   -0.7300
     11 C11        -3.0051    4.2821   51.4268 C.2     1  ZINC000150894060    0.5600
     12 O12        -2.1741    4.7724   52.1662 O.2     1  ZINC000150894060   -0.5300
     13 C13        -2.5769    3.4507   50.2817 C.ar    1  ZINC000150894060   -0.1300
     14 C14        -1.6076    3.9236   49.3958 C.ar    1  ZINC000150894060   -0.0900
     15 C15        -1.2120    3.1425   48.3297 C.ar    1  ZINC000150894060   -0.0900
     16 C16        -1.7743    1.8930   48.1373 C.ar    1  ZINC000150894060   -0.0800
     17 C17        -1.3379    1.0455   46.9702 C.3     1  ZINC000150894060    0.1700
     18 N18        -0.9450   -0.2816   47.4504 N.pl3   1  ZINC000150894060   -0.3700
     19 C19         0.2246   -0.5964   48.0455 C.2     1  ZINC000150894060    0.0500
     20 C20         0.1969   -1.9177   48.3362 C.2     1  ZINC000150894060   -0.2700
     21 C21        -1.0318   -2.4278   47.9041 C.2     1  ZINC000150894060    0.0400
     22 N22        -1.7195   -1.4467   47.3784 N.2     1  ZINC000150894060   -0.2900
     23 C23        -2.7354    1.4181   49.0121 C.ar    1  ZINC000150894060   -0.1100
     24 C24        -3.1360    2.1869   50.0852 C.ar    1  ZINC000150894060   -0.0600
     25 O25        -8.6557    0.7663   51.9569 O.3     1  ZINC000150894060   -0.1700
     26 C26        -9.4938   -0.2344   51.6573 C.2     1  ZINC000150894060    0.0000
     27 C27       -10.2817   -0.4768   52.7280 C.2     1  ZINC000150894060   -0.2300
     28 H28        -9.9630   -0.1007   55.7962 H       1  ZINC000150894060    0.0800
     29 H29       -10.4354    1.5801   55.4500 H       1  ZINC000150894060    0.0900
     30 H30       -11.5534    0.2464   55.0762 H       1  ZINC000150894060    0.0700
     31 H31        -7.1643    2.8982   52.2927 H       1  ZINC000150894060    0.4100
     32 H32        -7.2425    4.5275   54.7229 H       1  ZINC000150894060    0.0800
     33 H33        -5.6904    3.7292   54.3738 H       1  ZINC000150894060    0.0800
     34 H34        -6.7118    5.0080   51.9735 H       1  ZINC000150894060    0.0800
     35 H35        -6.6444    6.1839   53.3080 H       1  ZINC000150894060    0.0800
     36 H36        -4.4539    6.3580   52.6071 H       1  ZINC000150894060    0.0800
     37 H37        -4.2610    4.9626   53.6950 H       1  ZINC000150894060    0.0800
     38 H38        -4.9797    4.1040   51.0616 H       1  ZINC000150894060    0.4000
     39 H39        -1.1683    4.8990   49.5444 H       1  ZINC000150894060    0.1300
     40 H40        -0.4621    3.5073   47.6434 H       1  ZINC000150894060    0.1300
     41 H41        -2.1625    0.9470   46.2642 H       1  ZINC000150894060    0.1100
     42 H42        -0.4899    1.5184   46.4748 H       1  ZINC000150894060    0.1000
     43 H43         1.0373    0.0842   48.2522 H       1  ZINC000150894060    0.1700
     44 H44         0.9844   -2.4793   48.8166 H       1  ZINC000150894060    0.1500
     45 H45        -1.3583   -3.4533   47.9936 H       1  ZINC000150894060    0.1800
     46 H46        -3.1702    0.4419   48.8566 H       1  ZINC000150894060    0.1300
     47 H47        -3.8860    1.8149   50.7675 H       1  ZINC000150894060    0.1400
     48 H48        -9.5310   -0.7633   50.7163 H       1  ZINC000150894060    0.2100
     49 H49       -11.0579   -1.2246   52.7971 H       1  ZINC000150894060    0.1600
@<TRIPOS>BOND
     1     1     2    1
     2     1    28    1
     3     1    29    1
     4     1    30    1
     5     2    27    1
     6     2     3    2
     7     3     4    1
     8     3    25    1
     9     4     5    2
    10     4     6   am
    11     6     7    1
    12     6    31    1
    13     7     8    1
    14     7    32    1
    15     7    33    1
    16     8     9    1
    17     8    34    1
    18     8    35    1
    19     9    10    1
    20     9    36    1
    21     9    37    1
    22    10    11   am
    23    10    38    1
    24    11    12    2
    25    11    13    1
    26    13    24   ar
    27    13    14   ar
    28    14    15   ar
    29    14    39    1
    30    15    16   ar
    31    15    40    1
    32    16    17    1
    33    16    23   ar
    34    17    18    1
    35    17    41    1
    36    17    42    1
    37    18    22    1
    38    18    19    1
    39    19    20    2
    40    19    43    1
    41    20    21    1
    42    20    44    1
    43    21    22    2
    44    21    45    1
    45    23    24   ar
    46    23    46    1
    47    24    47    1
    48    25    26    1
    49    26    27    2
    50    26    48    1
    51    27    49    1
@<TRIPOS>SUBSTRUCTURE
     1 ZINC000150894060        1 TEMP              0 ****  ****    0 ROOT


##########                                Name:    ZINC000523153175
##########                DOCK_Rotatable_Bonds:                   9
##########                         Heavy_Atoms:                  30
##########                    Molecular_Weight:             413.603
##########                DOCK_Rotatable_Bonds:                   9
##########                       Formal_Charge:           0.0499987
##########                     HBond_Acceptors:                   5
##########                        HBond_Donors:                   1
##########                         Heavy_Atoms:                  30
##########                          Grid_Score:          -34.882259
##########                     Grid_vdw_energy:          -33.600330
##########                      Grid_es_energy:           -1.281930
##########           Internal_energy_repulsive:           30.384182

@<TRIPOS>MOLECULE
ZINC000523153175
 69 71 1 0 0
SMALL
USER_CHARGES


@<TRIPOS>ATOM
      1 C1         -8.3405    0.9016   65.5399 C.3     1  ZINC000523153175   -0.1500
      2 C2         -8.9295    1.6898   64.3683 C.3     1  ZINC000523153175   -0.0600
      3 C3         -7.8026    2.3922   63.6083 C.3     1  ZINC000523153175   -0.1400
      4 C4         -9.6497    0.7464   63.4397 C.ar    1  ZINC000523153175   -0.0800
      5 C5        -10.9262    1.0471   63.0026 C.ar    1  ZINC000523153175   -0.1100
      6 C6        -11.5869    0.1817   62.1507 C.ar    1  ZINC000523153175   -0.1100
      7 C7        -10.9709   -0.9843   61.7359 C.ar    1  ZINC000523153175   -0.0800
      8 C8        -11.6914   -1.9280   60.8077 C.3     1  ZINC000523153175   -0.0300
      9 H9        -11.1185   -2.8502   60.7108 H       1  ZINC000523153175    0.0800
     10 C10       -13.0758   -2.2450   61.3767 C.3     1  ZINC000523153175   -0.1500
     11 C11       -11.8425   -1.2744   59.4326 C.3     1  ZINC000523153175   -0.1300
     12 C12       -12.0644   -2.3409   58.3913 C.2     1  ZINC000523153175    0.5200
     13 O13       -12.1128   -3.5076   58.7189 O.2     1  ZINC000523153175   -0.5300
     14 N14       -12.2091   -1.9982   57.0959 N.am    1  ZINC000523153175   -0.6200
     15 C15       -12.1458   -0.5899   56.6760 C.3     1  ZINC000523153175    0.1100
     16 C16       -11.1441   -0.4704   55.5226 C.3     1  ZINC000523153175    0.0400
     17 N17       -11.5081   -1.4192   54.4618 N.3     1  ZINC000523153175   -0.5100
     18 C18       -10.6771   -1.2174   53.2672 C.3     1  ZINC000523153175    0.0600
     19 H19        -9.7453   -1.7727   53.3748 H       1  ZINC000523153175    0.1100
     20 C20       -11.4292   -1.7176   52.0324 C.3     1  ZINC000523153175   -0.1800
     21 C21       -10.3721    0.2500   53.1096 C.2     1  ZINC000523153175    0.5200
     22 O22       -11.2367    1.0119   52.7319 O.2     1  ZINC000523153175   -0.5200
     23 N23        -9.1383    0.7155   53.3884 N.am    1  ZINC000523153175   -0.7200
     24 C24        -8.8423    2.1423   53.2368 C.3     1  ZINC000523153175    0.1400
     25 C25        -8.9530    2.8529   54.6016 C.3     1  ZINC000523153175   -0.1300
     26 C26        -7.4984    2.8842   55.1327 C.3     1  ZINC000523153175   -0.1300
     27 C27        -6.6720    3.1509   53.8501 C.3     1  ZINC000523153175   -0.1300
     28 C28        -7.3919    2.3318   52.7590 C.3     1  ZINC000523153175   -0.1300
     29 C29       -11.4212   -2.8071   54.9352 C.3     1  ZINC000523153175    0.0400
     30 C30       -12.4281   -3.0228   56.0637 C.3     1  ZINC000523153175    0.1200
     31 C31        -9.6940   -1.2842   62.1719 C.ar    1  ZINC000523153175   -0.1100
     32 C32        -9.0317   -0.4170   63.0207 C.ar    1  ZINC000523153175   -0.1200
     33 H33        -7.8195    1.5839   66.2115 H       1  ZINC000523153175    0.0600
     34 H34        -9.1433    0.4012   66.0813 H       1  ZINC000523153175    0.0600
     35 H35        -7.6390    0.1581   65.1615 H       1  ZINC000523153175    0.0600
     36 H36        -9.6310    2.4333   64.7467 H       1  ZINC000523153175    0.0800
     37 H37        -7.1011    1.6487   63.2299 H       1  ZINC000523153175    0.0600
     38 H38        -8.2222    2.9537   62.7735 H       1  ZINC000523153175    0.0600
     39 H39        -7.2816    3.0746   64.2799 H       1  ZINC000523153175    0.0600
     40 H40       -11.4075    1.9580   63.3266 H       1  ZINC000523153175    0.1200
     41 H41       -12.5845    0.4163   61.8097 H       1  ZINC000523153175    0.1200
     42 H42       -13.5970   -2.9275   60.7054 H       1  ZINC000523153175    0.0800
     43 H43       -12.9681   -2.7105   62.3564 H       1  ZINC000523153175    0.0600
     44 H44       -13.6486   -1.3227   61.4737 H       1  ZINC000523153175    0.0500
     45 H45       -12.6952   -0.5955   59.4448 H       1  ZINC000523153175    0.0900
     46 H46       -10.9371   -0.7164   59.1940 H       1  ZINC000523153175    0.0900
     47 H47       -13.1303   -0.2632   56.3413 H       1  ZINC000523153175    0.0800
     48 H48       -11.8168    0.0270   57.5121 H       1  ZINC000523153175    0.0900
     49 H49       -11.1655    0.5446   55.1258 H       1  ZINC000523153175    0.0900
     50 H50       -10.1420   -0.6982   55.8860 H       1  ZINC000523153175    0.0400
     51 H51       -12.3610   -1.1623   51.9248 H       1  ZINC000523153175    0.0700
     52 H52       -10.8127   -1.5678   51.1461 H       1  ZINC000523153175    0.0700
     53 H53       -11.6499   -2.7790   52.1464 H       1  ZINC000523153175    0.0700
     54 H54        -8.4465    0.1058   53.6893 H       1  ZINC000523153175    0.4000
     55 H55        -9.5323    2.5928   52.5233 H       1  ZINC000523153175    0.0900
     56 H56        -9.3347    3.8659   54.4744 H       1  ZINC000523153175    0.0700
     57 H57        -9.5935    2.2849   55.2765 H       1  ZINC000523153175    0.0700
     58 H58        -7.3671    3.6927   55.8518 H       1  ZINC000523153175    0.0700
     59 H59        -7.2276    1.9252   55.5743 H       1  ZINC000523153175    0.0700
     60 H60        -6.6852    4.2120   53.6016 H       1  ZINC000523153175    0.0700
     61 H61        -5.6476    2.8004   53.9766 H       1  ZINC000523153175    0.0700
     62 H62        -6.9083    1.3621   52.6399 H       1  ZINC000523153175    0.0700
     63 H63        -7.3781    2.8750   51.8141 H       1  ZINC000523153175    0.0800
     64 H64       -11.6436   -3.4866   54.1125 H       1  ZINC000523153175    0.1000
     65 H65       -10.4152   -3.0022   55.3068 H       1  ZINC000523153175    0.0400
     66 H66       -12.2885   -4.0143   56.4945 H       1  ZINC000523153175    0.1000
     67 H67       -13.4415   -2.9297   55.6731 H       1  ZINC000523153175    0.0800
     68 H68        -9.2126   -2.1950   61.8475 H       1  ZINC000523153175    0.1200
     69 H69        -8.0341   -0.6514   63.3613 H       1  ZINC000523153175    0.1200
@<TRIPOS>BOND
     1     1     2    1
     2     1    33    1
     3     1    34    1
     4     1    35    1
     5     2     3    1
     6     2     4    1
     7     2    36    1
     8     3    37    1
     9     3    38    1
    10     3    39    1
    11     4    32   ar
    12     4     5   ar
    13     5     6   ar
    14     5    40    1
    15     6     7   ar
    16     6    41    1
    17     7     8    1
    18     7    31   ar
    19     8     9    1
    20     8    10    1
    21     8    11    1
    22    10    42    1
    23    10    43    1
    24    10    44    1
    25    11    12    1
    26    11    45    1
    27    11    46    1
    28    12    13    2
    29    12    14   am
    30    14    30    1
    31    14    15    1
    32    15    16    1
    33    15    47    1
    34    15    48    1
    35    16    17    1
    36    16    49    1
    37    16    50    1
    38    17    18    1
    39    17    29    1
    40    18    19    1
    41    18    20    1
    42    18    21    1
    43    20    51    1
    44    20    52    1
    45    20    53    1
    46    21    22    2
    47    21    23   am
    48    23    24    1
    49    23    54    1
    50    24    28    1
    51    24    25    1
    52    24    55    1
    53    25    26    1
    54    25    56    1
    55    25    57    1
    56    26    27    1
    57    26    58    1
    58    26    59    1
    59    27    28    1
    60    27    60    1
    61    27    61    1
    62    28    62    1
    63    28    63    1
    64    29    30    1
    65    29    64    1
    66    29    65    1
    67    30    66    1
    68    30    67    1
    69    31    32   ar
    70    31    68    1
    71    32    69    1
@<TRIPOS>SUBSTRUCTURE
     1 ZINC000523153175        1 TEMP              0 ****  ****    0 ROOT


##########                                Name:    ZINC000772422035
##########                DOCK_Rotatable_Bonds:                  10
##########                         Heavy_Atoms:                  25
##########                    Molecular_Weight:             348.399
##########                DOCK_Rotatable_Bonds:                  10
##########                       Formal_Charge:          0.00999987
##########                     HBond_Acceptors:                   7
##########                        HBond_Donors:                   0
##########                         Heavy_Atoms:                  25
##########                          Grid_Score:          -34.853928
##########                     Grid_vdw_energy:          -34.978195
##########                      Grid_es_energy:            0.124266
##########           Internal_energy_repulsive:           15.840347

@<TRIPOS>MOLECULE
ZINC000772422035
 49 50 1 0 0
SMALL
USER_CHARGES


@<TRIPOS>ATOM
      1 C1         -4.8864    1.7594   56.4525 C.3     1  ZINC000772422035    0.0300
      2 O2         -3.5059    1.4535   56.6589 O.3     1  ZINC000772422035   -0.3900
      3 C3         -2.6561    2.6015   56.7016 C.3     1  ZINC000772422035    0.0600
      4 C4         -2.3124    3.0349   55.2751 C.3     1  ZINC000772422035    0.0700
      5 O5         -3.3975    3.7896   54.7321 O.3     1  ZINC000772422035   -0.3000
      6 C6         -3.3886    4.0048   53.3925 C.ar    1  ZINC000772422035    0.3300
      7 C7         -2.1780    4.0853   52.7169 C.ar    1  ZINC000772422035   -0.1700
      8 C8         -2.1827    4.3050   51.3503 C.ar    1  ZINC000772422035   -0.0200
      9 C9         -0.8906    4.3983   50.5802 C.3     1  ZINC000772422035    0.1100
     10 O10        -0.8545    3.3582   49.5677 O.3     1  ZINC000772422035   -0.3500
     11 C11         0.3048    3.1846   48.9135 C.2     1  ZINC000772422035    0.4700
     12 O12         1.3288    3.6364   49.3688 O.2     1  ZINC000772422035   -0.5000
     13 C13         0.3289    2.4263   47.6115 C.3     1  ZINC000772422035   -0.1100
     14 C14         0.0538    0.9451   47.8788 C.3     1  ZINC000772422035    0.0000
     15 H15        -0.3710    0.8287   48.8759 H       1  ZINC000772422035    0.1000
     16 C16         1.3629    0.1585   47.7871 C.3     1  ZINC000772422035   -0.1500
     17 C17        -0.9195    0.4221   46.8540 C.2     1  ZINC000772422035   -0.2000
     18 C18        -1.9949   -0.3763   47.0564 C.2     1  ZINC000772422035   -0.0200
     19 C19        -2.4702   -0.9330   48.3736 C.3     1  ZINC000772422035   -0.0800
     20 O20        -2.5527   -0.5734   45.8535 O.3     1  ZINC000772422035    0.1000
     21 N21        -1.9450    0.0034   44.9817 N.2     1  ZINC000772422035   -0.3600
     22 C22        -0.9251    0.6561   45.4598 C.2     1  ZINC000772422035    0.0300
     23 C23         0.0601    1.4883   44.6801 C.3     1  ZINC000772422035   -0.0800
     24 C24        -3.4044    4.4370   50.7052 C.ar    1  ZINC000772422035   -0.1900
     25 C25        -4.5698    4.3459   51.4405 C.ar    1  ZINC000772422035    0.1400
     26 N26        -4.5334    4.1303   52.7416 N.ar    1  ZINC000772422035   -0.5300
     27 H27        -5.4644    0.8355   56.4325 H       1  ZINC000772422035    0.0900
     28 H28        -5.2432    2.3937   57.2640 H       1  ZINC000772422035    0.0400
     29 H29        -5.0047    2.2826   55.5035 H       1  ZINC000772422035    0.0400
     30 H30        -3.1694    3.4147   57.2147 H       1  ZINC000772422035    0.0600
     31 H31        -1.7393    2.3552   57.2374 H       1  ZINC000772422035    0.0700
     32 H32        -1.4129    3.6504   55.2892 H       1  ZINC000772422035    0.0800
     33 H33        -2.1392    2.1525   54.6591 H       1  ZINC000772422035    0.0800
     34 H34        -1.2452    3.9783   53.2507 H       1  ZINC000772422035    0.1400
     35 H35        -0.8232    5.3748   50.1006 H       1  ZINC000772422035    0.0900
     36 H36        -0.0507    4.2701   51.2630 H       1  ZINC000772422035    0.0900
     37 H37        -0.4368    2.8236   46.9453 H       1  ZINC000772422035    0.1100
     38 H38         1.3082    2.5355   47.1455 H       1  ZINC000772422035    0.1100
     39 H39         1.8514    0.3757   46.8372 H       1  ZINC000772422035    0.0600
     40 H40         2.0191    0.4482   48.6077 H       1  ZINC000772422035    0.0800
     41 H41         1.1506   -0.9088   47.8509 H       1  ZINC000772422035    0.0600
     42 H42        -3.1022   -0.1978   48.8718 H       1  ZINC000772422035    0.0900
     43 H43        -3.0421   -1.8441   48.1978 H       1  ZINC000772422035    0.0900
     44 H44        -1.6103   -1.1596   49.0038 H       1  ZINC000772422035    0.0900
     45 H45        -0.2549    2.5316   44.6934 H       1  ZINC000772422035    0.0800
     46 H46         1.0478    1.4011   45.1328 H       1  ZINC000772422035    0.0800
     47 H47         0.1000    1.1340   43.6500 H       1  ZINC000772422035    0.0800
     48 H48        -3.4434    4.6095   49.6398 H       1  ZINC000772422035    0.1400
     49 H49        -5.5231    4.4478   50.9434 H       1  ZINC000772422035    0.1700
@<TRIPOS>BOND
     1     1     2    1
     2     1    27    1
     3     1    28    1
     4     1    29    1
     5     2     3    1
     6     3     4    1
     7     3    30    1
     8     3    31    1
     9     4     5    1
    10     4    32    1
    11     4    33    1
    12     5     6    1
    13     6    26   ar
    14     6     7   ar
    15     7     8   ar
    16     7    34    1
    17     8     9    1
    18     8    24   ar
    19     9    10    1
    20     9    35    1
    21     9    36    1
    22    10    11    1
    23    11    12    2
    24    11    13    1
    25    13    14    1
    26    13    37    1
    27    13    38    1
    28    14    15    1
    29    14    16    1
    30    14    17    1
    31    16    39    1
    32    16    40    1
    33    16    41    1
    34    17    22    1
    35    17    18    2
    36    18    19    1
    37    18    20    1
    38    19    42    1
    39    19    43    1
    40    19    44    1
    41    20    21    1
    42    21    22    2
    43    22    23    1
    44    23    45    1
    45    23    46    1
    46    23    47    1
    47    24    25   ar
    48    24    48    1
    49    25    26   ar
    50    25    49    1
@<TRIPOS>SUBSTRUCTURE
     1 ZINC000772422035        1 TEMP              0 ****  ****    0 ROOT


##########                                Name:     oleObject52.pdb
##########                DOCK_Rotatable_Bonds:                  10
##########                         Heavy_Atoms:                  38
##########                    Molecular_Weight:              533.07
##########                DOCK_Rotatable_Bonds:                  10
##########                       Formal_Charge:         0.000300027
##########                     HBond_Acceptors:                   8
##########                        HBond_Donors:                   0
##########                         Heavy_Atoms:                  38
##########                          Grid_Score:          -34.848122
##########                     Grid_vdw_energy:          -34.942013
##########                      Grid_es_energy:            0.093892
##########           Internal_energy_repulsive:           22.336435

@<TRIPOS>MOLECULE
oleObject52.pdb
 71 74 1 0 0
SMALL
NO_CHARGES


@<TRIPOS>ATOM
      1 C          -8.2948    3.0601   58.3136 C.ar    1  UNL        -0.0596
      2 C          -7.1625    2.4571   57.7457 C.ar    1  UNL        -0.0314
      3 C          -6.8644    2.6437   56.3790 C.ar    1  UNL         0.0800
      4 C          -7.7094    3.4457   55.5771 C.ar    1  UNL         0.0089
      5 C          -8.8481    4.0408   56.1617 C.ar    1  UNL        -0.0541
      6 C          -9.1380    3.8506   57.5211 C.ar    1  UNL        -0.0617
      7 C          -7.3812    3.6401   54.0889 C.3     1  UNL         0.0953
      8 C          -8.6449    3.7668   53.2201 C.ar    1  UNL         0.0684
      9 C          -9.4077    2.6346   52.8383 C.ar    1  UNL        -0.0272
     10 C         -10.5580    2.8356   52.0523 C.ar    1  UNL        -0.0559
     11 C         -10.9103    4.1398   51.6768 C.ar    1  UNL        -0.0435
     12 C         -10.1008    5.2034   52.1021 C.ar    1  UNL         0.0272
     13 N          -8.9990    5.0217   52.8537 N.ar    1  UNL        -0.2587
     14 C          -9.0330    1.2198   53.2625 C.3     1  UNL        -0.0379
     15 N          -6.3436    4.6766   53.8211 N.am    1  UNL        -0.2917
     16 C          -5.5553    4.6034   52.6676 C.2     1  UNL         0.2180
     17 O          -5.8704    3.8616   51.7519 O.2     1  UNL        -0.2772
     18 C          -4.4973    5.7165   52.4564 C.3     1  UNL         0.0385
     19 C          -4.3781    6.1305   50.9697 C.3     1  UNL        -0.0289
     20 C          -3.6434    5.0652   50.1274 C.3     1  UNL        -0.0010
     21 N          -2.2979    4.7729   50.6738 N.4     1  UNL        -0.3010
     22 C          -2.3335    4.3398   52.0880 C.3     1  UNL        -0.0010
     23 C          -3.0944    5.3347   52.9987 C.3     1  UNL        -0.0289
     24 C          -1.4934    3.8459   49.8471 C.3     1  UNL         0.0222
     25 C          -2.1655    2.4743   49.6306 C.3     1  UNL         0.0661
     26 O          -1.1665    1.5710   49.1246 O.3     1  UNL        -0.3432
     27 C          -0.6608    1.6316   47.8404 C.ar    1  UNL         0.0937
     28 C           0.5925    2.2137   47.5563 C.ar    1  UNL        -0.0289
     29 C           1.0702    2.2547   46.2358 C.ar    1  UNL        -0.0417
     30 C           0.3032    1.7161   45.1883 C.ar    1  UNL         0.0537
     31 C          -0.9455    1.1350   45.4671 C.ar    1  UNL        -0.0230
     32 C          -1.4257    1.0925   46.7866 C.ar    1  UNL         0.0721
     33 CL         -2.9887    0.3592   47.0941 Cl      1  UNL        -0.0814
     34 C           0.7930    1.7592   43.8405 C.1     1  UNL         0.0992
     35 N           1.1961    1.8002   42.7574 N.1     1  UNL        -0.1924
     36 C          -6.1741    5.7366   54.8388 C.3     1  UNL         0.0037
     37 O          -5.7580    2.0521   55.7935 O.3     1  UNL        -0.3490
     38 C          -4.7395    1.3566   56.5321 C.3     1  UNL         0.0422
     39 H          -8.5189    2.9125   59.3661 H       1  UNL         0.0624
     40 H          -6.5260    1.8470   58.3776 H       1  UNL         0.0651
     41 H          -9.5173    4.6540   55.5679 H       1  UNL         0.0627
     42 H         -10.0165    4.3158   57.9589 H       1  UNL         0.0623
     43 H          -6.9163    2.6940   53.7899 H       1  UNL         0.0627
     44 H         -11.1727    1.9956   51.7416 H       1  UNL         0.0627
     45 H         -11.7941    4.3239   51.0732 H       1  UNL         0.0639
     46 H         -10.3419    6.2318   51.8361 H       1  UNL         0.0840
     47 H          -7.9870    0.9992   53.0248 H       1  UNL         0.0280
     48 H          -9.6493    0.4674   52.7550 H       1  UNL         0.0280
     49 H          -9.1706    1.0861   54.3429 H       1  UNL         0.0280
     50 H          -4.8160    6.5938   53.0290 H       1  UNL         0.0402
     51 H          -3.8195    7.0732   50.9058 H       1  UNL         0.0288
     52 H          -5.3675    6.3280   50.5414 H       1  UNL         0.0288
     53 H          -3.5702    5.4418   49.1006 H       1  UNL         0.0431
     54 H          -4.2415    4.1445   50.1050 H       1  UNL         0.0431
     55 H          -1.3096    4.2352   52.4693 H       1  UNL         0.0431
     56 H          -2.8052    3.3514   52.1550 H       1  UNL         0.0431
     57 H          -2.4923    6.2485   53.0847 H       1  UNL         0.0288
     58 H          -3.1801    4.9226   54.0124 H       1  UNL         0.0288
     59 H          -0.5083    3.6937   50.3076 H       1  UNL         0.0455
     60 H          -1.3290    4.2953   48.8590 H       1  UNL         0.0455
     61 H          -2.9842    2.5797   48.9073 H       1  UNL         0.0586
     62 H          -2.5672    2.0950   50.5779 H       1  UNL         0.0586
     63 H           1.2041    2.6360   48.3471 H       1  UNL         0.0651
     64 H           2.0373    2.7056   46.0284 H       1  UNL         0.0638
     65 H          -1.5444    0.7162   44.6626 H       1  UNL         0.0653
     66 H          -6.4683    5.3738   55.8302 H       1  UNL         0.0433
     67 H          -6.7907    6.6062   54.5802 H       1  UNL         0.0433
     68 H          -5.1226    6.0392   54.9051 H       1  UNL         0.0433
     69 H          -3.9780    0.9729   55.8421 H       1  UNL         0.0535
     70 H          -5.1729    0.5088   57.0777 H       1  UNL         0.0535
     71 H          -4.2523    2.0336   57.2450 H       1  UNL         0.0535
@<TRIPOS>BOND
     1     1     2   ar
     2     1     6   ar
     3     1    39    1
     4     2     3   ar
     5     2    40    1
     6     3     4   ar
     7     3    37    1
     8     4     5   ar
     9     4     7    1
    10     5     6   ar
    11     5    41    1
    12     6    42    1
    13     7     8    1
    14     7    15    1
    15     7    43    1
    16     8     9   ar
    17     8    13   ar
    18     9    10   ar
    19     9    14    1
    20    10    11   ar
    21    10    44    1
    22    11    12   ar
    23    11    45    1
    24    12    13   ar
    25    12    46    1
    26    14    47    1
    27    14    48    1
    28    14    49    1
    29    15    16   am
    30    15    36    1
    31    16    17    2
    32    16    18    1
    33    18    19    1
    34    18    23    1
    35    18    50    1
    36    19    20    1
    37    19    51    1
    38    19    52    1
    39    20    21    1
    40    20    53    1
    41    20    54    1
    42    21    22    1
    43    21    24    1
    44    22    23    1
    45    22    55    1
    46    22    56    1
    47    23    57    1
    48    23    58    1
    49    24    25    1
    50    24    59    1
    51    24    60    1
    52    25    26    1
    53    25    61    1
    54    25    62    1
    55    26    27    1
    56    27    28   ar
    57    27    32   ar
    58    28    29   ar
    59    28    63    1
    60    29    30   ar
    61    29    64    1
    62    30    31   ar
    63    30    34    1
    64    31    32   ar
    65    31    65    1
    66    32    33    1
    67    34    35    3
    68    36    66    1
    69    36    67    1
    70    36    68    1
    71    37    38    1
    72    38    69    1
    73    38    70    1
    74    38    71    1
@<TRIPOS>SUBSTRUCTURE
     1 UNL         1 TEMP              0 ****  ****    0 ROOT


##########                                Name:    ZINC000770814339
##########                DOCK_Rotatable_Bonds:                  13
##########                         Heavy_Atoms:                  28
##########                    Molecular_Weight:             409.423
##########                DOCK_Rotatable_Bonds:                  13
##########                       Formal_Charge:          -0.0100008
##########                     HBond_Acceptors:                  12
##########                        HBond_Donors:                   4
##########                         Heavy_Atoms:                  28
##########                          Grid_Score:          -34.785599
##########                     Grid_vdw_energy:          -34.463997
##########                      Grid_es_energy:           -0.321604
##########           Internal_energy_repulsive:            5.635354

@<TRIPOS>MOLECULE
ZINC000770814339
 47 48 1 0 0
SMALL
USER_CHARGES


@<TRIPOS>ATOM
      1 C1         -8.6317   -1.4902   61.1456 C.3     1  ZINC000770814339   -0.1500
      2 C2         -9.8914   -1.2686   61.9854 C.3     1  ZINC000770814339    0.0600
      3 O3        -11.0613   -1.3265   61.1274 O.3     1  ZINC000770814339   -0.3500
      4 C4        -12.2393   -0.9978   61.6804 C.2     1  ZINC000770814339    0.4700
      5 O5        -12.3270   -0.8590   62.8774 O.2     1  ZINC000770814339   -0.4800
      6 C6        -13.4527   -0.8021   60.8083 C.3     1  ZINC000770814339    0.0700
      7 O7        -14.2919   -1.9556   60.8938 O.3     1  ZINC000770814339   -0.1800
      8 N8        -15.4785   -1.8626   60.1268 N.2     1  ZINC000770814339   -0.2800
      9 C9        -15.5600   -2.4696   58.9766 C.2     1  ZINC000770814339    0.1800
     10 C10       -14.4101   -3.2558   58.4705 C.2     1  ZINC000770814339    0.5900
     11 O11       -14.1522   -4.3381   58.9587 O.2     1  ZINC000770814339   -0.5100
     12 N12       -13.6504   -2.7700   57.4688 N.am    1  ZINC000770814339   -0.7000
     13 C13       -12.5148   -3.5478   56.9673 C.3     1  ZINC000770814339    0.1500
     14 C14       -11.8834   -2.8236   55.8063 C.ar    1  ZINC000770814339   -0.0600
     15 C15       -11.8067   -3.4354   54.5691 C.ar    1  ZINC000770814339   -0.1200
     16 C16       -11.2276   -2.7711   53.5042 C.ar    1  ZINC000770814339   -0.0200
     17 C17       -10.7255   -1.4947   53.6763 C.ar    1  ZINC000770814339   -0.6700
     18 S18        -9.9867   -0.6481   52.3190 S.o2    1  ZINC000770814339    2.7000
     19 N19       -11.2003    0.1400   51.5138 N.am    1  ZINC000770814339   -1.2500
     20 O20        -9.1561    0.3598   52.8789 O.2     1  ZINC000770814339   -0.9600
     21 O21        -9.5041   -1.6509   51.4354 O.2     1  ZINC000770814339   -0.9600
     22 C22       -10.8033   -0.8823   54.9131 C.ar    1  ZINC000770814339   -0.0200
     23 C23       -11.3860   -1.5452   55.9771 C.ar    1  ZINC000770814339   -0.1200
     24 C24       -16.7978   -2.3740   58.1774 C.2     1  ZINC000770814339    0.0600
     25 C25       -17.0243   -2.9512   56.9464 C.2     1  ZINC000770814339   -0.2000
     26 C26       -18.3172   -2.6115   56.5510 C.2     1  ZINC000770814339    0.0400
     27 N27       -18.8591   -1.8679   57.4823 N.2     1  ZINC000770814339   -0.2600
     28 N28       -17.9349   -1.7026   58.5213 N.pl3   1  ZINC000770814339   -0.4400
     29 H29        -7.7533   -1.4467   61.7896 H       1  ZINC000770814339    0.0800
     30 H30        -8.6823   -2.4674   60.6655 H       1  ZINC000770814339    0.0700
     31 H31        -8.5620   -0.7141   60.3833 H       1  ZINC000770814339    0.0700
     32 H32        -9.9610   -2.0447   62.7476 H       1  ZINC000770814339    0.0700
     33 H33        -9.8407   -0.2913   62.4654 H       1  ZINC000770814339    0.0700
     34 H34       -14.0050    0.0749   61.1457 H       1  ZINC000770814339    0.1100
     35 H35       -13.1379   -0.6577   59.7748 H       1  ZINC000770814339    0.1100
     36 H36       -13.8556   -1.9054   57.0799 H       1  ZINC000770814339    0.4100
     37 H37       -11.7793   -3.6707   57.7623 H       1  ZINC000770814339    0.0900
     38 H38       -12.8621   -4.5275   56.6389 H       1  ZINC000770814339    0.0900
     39 H39       -12.1990   -4.4327   54.4346 H       1  ZINC000770814339    0.1400
     40 H40       -11.1671   -3.2494   52.5378 H       1  ZINC000770814339    0.1500
     41 H41       -11.7342    0.8067   51.9734 H       1  ZINC000770814339    0.4200
     42 H42       -11.3772   -0.0651   50.5823 H       1  ZINC000770814339    0.4200
     43 H43       -10.4114    0.1150   55.0476 H       1  ZINC000770814339    0.1500
     44 H44       -11.4468   -1.0668   56.9435 H       1  ZINC000770814339    0.1400
     45 H45       -16.3258   -3.5572   56.3884 H       1  ZINC000770814339    0.1700
     46 H46       -18.7928   -2.9116   55.6291 H       1  ZINC000770814339    0.1900
     47 H47       -18.0756   -1.1966   59.3367 H       1  ZINC000770814339    0.4500
@<TRIPOS>BOND
     1     1     2    1
     2     1    29    1
     3     1    30    1
     4     1    31    1
     5     2     3    1
     6     2    32    1
     7     2    33    1
     8     3     4    1
     9     4     5    2
    10     4     6    1
    11     6     7    1
    12     6    34    1
    13     6    35    1
    14     7     8    1
    15     8     9    2
    16     9    10    1
    17     9    24    1
    18    10    11    2
    19    10    12   am
    20    12    13    1
    21    12    36    1
    22    13    14    1
    23    13    37    1
    24    13    38    1
    25    14    23   ar
    26    14    15   ar
    27    15    16   ar
    28    15    39    1
    29    16    17   ar
    30    16    40    1
    31    17    18    1
    32    17    22   ar
    33    18    19   am
    34    18    20    2
    35    18    21    2
    36    19    41    1
    37    19    42    1
    38    22    23   ar
    39    22    43    1
    40    23    44    1
    41    24    28    1
    42    24    25    2
    43    25    26    1
    44    25    45    1
    45    26    27    2
    46    26    46    1
    47    27    28    1
    48    28    47    1
@<TRIPOS>SUBSTRUCTURE
     1 ZINC000770814339        1 TEMP              0 ****  ****    0 ROOT


##########                                Name:    ZINC000512239524
##########                DOCK_Rotatable_Bonds:                   9
##########                         Heavy_Atoms:                  31
##########                    Molecular_Weight:             424.518
##########                DOCK_Rotatable_Bonds:                   9
##########                       Formal_Charge:          0.00999919
##########                     HBond_Acceptors:                   7
##########                        HBond_Donors:                   1
##########                         Heavy_Atoms:                  31
##########                          Grid_Score:          -34.785446
##########                     Grid_vdw_energy:          -34.251759
##########                      Grid_es_energy:           -0.533689
##########           Internal_energy_repulsive:           31.744619

@<TRIPOS>MOLECULE
ZINC000512239524
 60 63 1 0 0
SMALL
USER_CHARGES


@<TRIPOS>ATOM
      1 C1         -0.7592    1.6111   46.0529 C.3     1  ZINC000512239524   -0.1600
      2 C2         -0.3437    1.3858   47.5081 C.3     1  ZINC000512239524    0.2000
      3 H3          0.7180    1.6052   47.6209 H       1  ZINC000512239524    0.1100
      4 N4         -1.1205    2.2704   48.3801 N.am    1  ZINC000512239524   -0.7400
      5 C5         -0.5162    3.2988   49.0074 C.2     1  ZINC000512239524    0.7100
      6 O6          0.6738    3.4925   48.8496 O.2     1  ZINC000512239524   -0.5800
      7 N7         -1.2308    4.1125   49.8097 N.am    1  ZINC000512239524   -0.6300
      8 C8         -2.6681    3.8877   50.0150 C.3     1  ZINC000512239524    0.1300
      9 C9         -2.9442    3.8045   51.5196 C.3     1  ZINC000512239524   -0.1100
     10 C10        -2.4004    5.0607   52.2041 C.3     1  ZINC000512239524   -0.1000
     11 C11        -2.7003    4.9980   53.6796 C.2     1  ZINC000512239524    0.5300
     12 O12        -1.9468    4.4113   54.4273 O.2     1  ZINC000512239524   -0.5300
     13 N13        -3.8060    5.5939   54.1684 N.am    1  ZINC000512239524   -0.5800
     14 C14        -4.0966    5.5345   55.6031 C.3     1  ZINC000512239524    0.1500
     15 C15        -4.3731    4.1074   56.0009 C.ar    1  ZINC000512239524   -0.1100
     16 C16        -3.3778    3.3484   56.5877 C.ar    1  ZINC000512239524   -0.0900
     17 C17        -3.6313    2.0394   56.9526 C.ar    1  ZINC000512239524   -0.1200
     18 C18        -4.8801    1.4896   56.7312 C.ar    1  ZINC000512239524   -0.1100
     19 C19        -5.8755    2.2489   56.1451 C.ar    1  ZINC000512239524   -0.1200
     20 C20        -5.6234    3.5592   55.7842 C.ar    1  ZINC000512239524   -0.1100
     21 C21        -4.7171    6.3011   53.2651 C.3     1  ZINC000512239524    0.0700
     22 C22        -5.8428    5.4902   52.6202 C.3     1  ZINC000512239524   -0.1900
     23 C23        -6.1621    6.4951   53.7288 C.3     1  ZINC000512239524   -0.2000
     24 C24        -0.8866    5.1431   51.9946 C.3     1  ZINC000512239524   -0.1400
     25 C25        -0.5860    5.2378   50.5002 C.3     1  ZINC000512239524    0.1100
     26 C26        -0.6034   -0.0491   47.8882 C.ar    1  ZINC000512239524   -0.0800
     27 C27        -1.8940   -0.5008   48.1143 C.ar    1  ZINC000512239524   -0.1400
     28 C28        -2.0940   -1.8240   48.4610 C.ar    1  ZINC000512239524    0.1000
     29 N29        -1.0755   -2.6532   48.5778 N.ar    1  ZINC000512239524   -0.4600
     30 C30         0.1662   -2.2605   48.3707 C.ar    1  ZINC000512239524    0.0800
     31 C31         0.4442   -0.9521   48.0148 C.ar    1  ZINC000512239524    0.0600
     32 F32         1.7185   -0.5560   47.8040 F       1  ZINC000512239524   -0.1200
     33 H33        -0.5714    2.6489   45.7779 H       1  ZINC000512239524    0.0700
     34 H34        -0.1812    0.9530   45.4040 H       1  ZINC000512239524    0.0700
     35 H35        -1.8209    1.3917   45.9400 H       1  ZINC000512239524    0.0600
     36 H36        -2.0698    2.1158   48.5061 H       1  ZINC000512239524    0.3900
     37 H37        -3.2325    4.7151   49.5851 H       1  ZINC000512239524    0.0700
     38 H38        -2.9638    2.9537   49.5371 H       1  ZINC000512239524    0.1000
     39 H39        -4.0186    3.7340   51.6890 H       1  ZINC000512239524    0.0900
     40 H40        -2.4519    2.9235   51.9316 H       1  ZINC000512239524    0.0800
     41 H41        -2.8749    5.9428   51.7742 H       1  ZINC000512239524    0.1000
     42 H42        -3.2395    5.9082   56.1632 H       1  ZINC000512239524    0.0900
     43 H43        -4.9700    6.1486   55.8226 H       1  ZINC000512239524    0.1000
     44 H44        -2.4021    3.7779   56.7608 H       1  ZINC000512239524    0.1300
     45 H45        -2.8536    1.4462   57.4104 H       1  ZINC000512239524    0.1200
     46 H46        -5.0780    0.4667   57.0156 H       1  ZINC000512239524    0.1200
     47 H47        -6.8511    1.8193   55.9718 H       1  ZINC000512239524    0.1200
     48 H48        -6.4011    4.1525   55.3264 H       1  ZINC000512239524    0.1200
     49 H49        -4.2674    7.0980   52.6729 H       1  ZINC000512239524    0.1300
     50 H50        -6.1338    5.7535   51.6033 H       1  ZINC000512239524    0.1100
     51 H51        -5.9056    4.4306   52.8679 H       1  ZINC000512239524    0.1000
     52 H52        -6.4350    6.0965   54.7060 H       1  ZINC000512239524    0.1100
     53 H53        -6.6632    7.4194   53.4413 H       1  ZINC000512239524    0.1000
     54 H54        -0.4966    6.0254   52.5021 H       1  ZINC000512239524    0.0900
     55 H55        -0.4137    4.2495   52.4022 H       1  ZINC000512239524    0.0700
     56 H56         0.4915    5.1969   50.3410 H       1  ZINC000512239524    0.0800
     57 H57        -0.9804    6.1747   50.1068 H       1  ZINC000512239524    0.0800
     58 H58        -2.7331    0.1727   48.0212 H       1  ZINC000512239524    0.1400
     59 H59        -3.0970   -2.1830   48.6386 H       1  ZINC000512239524    0.1700
     60 H60         0.9748   -2.9686   48.4762 H       1  ZINC000512239524    0.1700
@<TRIPOS>BOND
     1     1     2    1
     2     1    33    1
     3     1    34    1
     4     1    35    1
     5     2     3    1
     6     2     4    1
     7     2    26    1
     8     4     5   am
     9     4    36    1
    10     5     6    2
    11     5     7   am
    12     7    25    1
    13     7     8    1
    14     8     9    1
    15     8    37    1
    16     8    38    1
    17     9    10    1
    18     9    39    1
    19     9    40    1
    20    10    11    1
    21    10    24    1
    22    10    41    1
    23    11    12    2
    24    11    13   am
    25    13    14    1
    26    13    21    1
    27    14    15    1
    28    14    42    1
    29    14    43    1
    30    15    20   ar
    31    15    16   ar
    32    16    17   ar
    33    16    44    1
    34    17    18   ar
    35    17    45    1
    36    18    19   ar
    37    18    46    1
    38    19    20   ar
    39    19    47    1
    40    20    48    1
    41    21    23    1
    42    21    22    1
    43    21    49    1
    44    22    23    1
    45    22    50    1
    46    22    51    1
    47    23    52    1
    48    23    53    1
    49    24    25    1
    50    24    54    1
    51    24    55    1
    52    25    56    1
    53    25    57    1
    54    26    31   ar
    55    26    27   ar
    56    27    28   ar
    57    27    58    1
    58    28    29   ar
    59    28    59    1
    60    29    30   ar
    61    30    31   ar
    62    30    60    1
    63    31    32    1
@<TRIPOS>SUBSTRUCTURE
     1 ZINC000512239524        1 TEMP              0 ****  ****    0 ROOT


##########                                Name:    ZINC000045927156
##########                DOCK_Rotatable_Bonds:                   7
##########                         Heavy_Atoms:                  30
##########                    Molecular_Weight:             418.522
##########                DOCK_Rotatable_Bonds:                   7
##########                       Formal_Charge:           0.0200001
##########                     HBond_Acceptors:                   8
##########                        HBond_Donors:                   1
##########                         Heavy_Atoms:                  30
##########                          Grid_Score:          -34.782516
##########                     Grid_vdw_energy:          -31.830332
##########                      Grid_es_energy:           -2.952184
##########           Internal_energy_repulsive:           17.838140

@<TRIPOS>MOLECULE
ZINC000045927156
 52 56 1 0 0
SMALL
USER_CHARGES


@<TRIPOS>ATOM
      1 O1          1.5783    4.0819   46.7414 O.2     1  ZINC000045927156   -0.5800
      2 C2          1.3023    4.5563   45.6564 C.2     1  ZINC000045927156    0.7300
      3 N3          0.9777    5.8604   45.5540 N.am    1  ZINC000045927156   -0.7400
      4 C4          0.9517    6.7049   46.7508 C.3     1  ZINC000045927156    0.1700
      5 C5         -0.4568    6.7815   47.2811 C.ar    1  ZINC000045927156   -0.0700
      6 C6         -1.4782    7.2327   46.4667 C.ar    1  ZINC000045927156   -0.1000
      7 C7         -2.7704    7.3030   46.9531 C.ar    1  ZINC000045927156   -0.1100
      8 C8         -3.0409    6.9216   48.2538 C.ar    1  ZINC000045927156   -0.1100
      9 C9         -2.0193    6.4694   49.0682 C.ar    1  ZINC000045927156   -0.1000
     10 C10        -0.7282    6.3950   48.5806 C.ar    1  ZINC000045927156   -0.1000
     11 C11         0.3854    5.9020   49.4682 C.3     1  ZINC000045927156    0.1700
     12 N12        -0.1842    5.2132   50.6290 N.pl3   1  ZINC000045927156   -0.3800
     13 C13        -0.4552    3.9007   50.7341 C.2     1  ZINC000045927156    0.2500
     14 N14        -0.9526    3.6829   51.9244 N.2     1  ZINC000045927156   -0.5400
     15 C15        -1.0140    4.8268   52.6049 C.2     1  ZINC000045927156    0.2000
     16 N16        -0.5496    5.7919   51.8555 N.2     1  ZINC000045927156   -0.3100
     17 N17         1.3262    3.7793   44.5555 N.am    1  ZINC000045927156   -0.6200
     18 C18         1.0197    4.2234   43.1835 C.3     1  ZINC000045927156    0.1000
     19 C19         1.7612    3.2191   42.2665 C.3     1  ZINC000045927156   -0.1300
     20 C20         1.5854    1.8923   43.0514 C.3     1  ZINC000045927156   -0.1200
     21 C21         1.6685    2.3498   44.5227 C.3     1  ZINC000045927156    0.2300
     22 H22         2.6788    2.1968   44.9020 H       1  ZINC000045927156    0.1000
     23 C23         0.6845    1.5718   45.3579 C.2     1  ZINC000045927156    0.0900
     24 N24         1.0147    0.7690   46.2976 N.2     1  ZINC000045927156   -0.4500
     25 C25         0.0275    0.1394   46.9630 C.ar    1  ZINC000045927156    0.0800
     26 C26         0.1042   -0.7830   48.0256 C.ar    1  ZINC000045927156   -0.0700
     27 C27        -1.0302   -1.3103   48.5645 C.ar    1  ZINC000045927156   -0.1100
     28 C28        -2.2799   -0.9508   48.0804 C.ar    1  ZINC000045927156   -0.1000
     29 C29        -2.3853   -0.0516   47.0429 C.ar    1  ZINC000045927156   -0.0700
     30 C30        -1.2359    0.4978   46.4794 C.ar    1  ZINC000045927156   -0.1800
     31 S31        -1.0098    1.6569   45.1732 S.3     1  ZINC000045927156    0.1200
     32 H32         0.7614    6.2397   44.6878 H       1  ZINC000045927156    0.3900
     33 H33         1.6038    6.2765   47.5120 H       1  ZINC000045927156    0.1000
     34 H34         1.2992    7.7063   46.4965 H       1  ZINC000045927156    0.0700
     35 H35        -1.2669    7.5308   45.4503 H       1  ZINC000045927156    0.1300
     36 H36        -3.5685    7.6563   46.3170 H       1  ZINC000045927156    0.1300
     37 H37        -4.0502    6.9771   48.6340 H       1  ZINC000045927156    0.1300
     38 H38        -2.2306    6.1716   50.0846 H       1  ZINC000045927156    0.1300
     39 H39         1.0166    5.2111   48.9095 H       1  ZINC000045927156    0.1100
     40 H40         0.9832    6.7488   49.8054 H       1  ZINC000045927156    0.1000
     41 H41        -0.2917    3.1561   49.9692 H       1  ZINC000045927156    0.2200
     42 H42        -1.3834    4.9379   53.6136 H       1  ZINC000045927156    0.2200
     43 H43        -0.0543    4.1812   43.0022 H       1  ZINC000045927156    0.0700
     44 H44         1.3936    5.2342   43.0196 H       1  ZINC000045927156    0.0800
     45 H45         1.2862    3.1597   41.2873 H       1  ZINC000045927156    0.0900
     46 H46         2.8152    3.4805   42.1724 H       1  ZINC000045927156    0.0800
     47 H47         0.6154    1.4433   42.8375 H       1  ZINC000045927156    0.0900
     48 H48         2.3925    1.1973   42.8198 H       1  ZINC000045927156    0.0900
     49 H49         1.0687   -1.0741   48.4149 H       1  ZINC000045927156    0.1300
     50 H50        -0.9562   -2.0168   49.3780 H       1  ZINC000045927156    0.1400
     51 H51        -3.1708   -1.3770   48.5174 H       1  ZINC000045927156    0.1400
     52 H52        -3.3582    0.2272   46.6661 H       1  ZINC000045927156    0.1300
@<TRIPOS>BOND
     1     1     2    2
     2     2     3   am
     3     2    17   am
     4     3     4    1
     5     3    32    1
     6     4     5    1
     7     4    33    1
     8     4    34    1
     9     5    10   ar
    10     5     6   ar
    11     6     7   ar
    12     6    35    1
    13     7     8   ar
    14     7    36    1
    15     8     9   ar
    16     8    37    1
    17     9    10   ar
    18     9    38    1
    19    10    11    1
    20    11    12    1
    21    11    39    1
    22    11    40    1
    23    12    16    1
    24    12    13    1
    25    13    14    2
    26    13    41    1
    27    14    15    1
    28    15    16    2
    29    15    42    1
    30    17    21    1
    31    17    18    1
    32    18    19    1
    33    18    43    1
    34    18    44    1
    35    19    20    1
    36    19    45    1
    37    19    46    1
    38    20    21    1
    39    20    47    1
    40    20    48    1
    41    21    22    1
    42    21    23    1
    43    23    31    1
    44    23    24    2
    45    24    25    1
    46    25    30   ar
    47    25    26   ar
    48    26    27   ar
    49    26    49    1
    50    27    28   ar
    51    27    50    1
    52    28    29   ar
    53    28    51    1
    54    29    30   ar
    55    29    52    1
    56    30    31    1
@<TRIPOS>SUBSTRUCTURE
     1 ZINC000045927156        1 TEMP              0 ****  ****    0 ROOT


##########                                Name:    ZINC001015955459
##########                DOCK_Rotatable_Bonds:                   6
##########                         Heavy_Atoms:                  24
##########                    Molecular_Weight:             347.844
##########                DOCK_Rotatable_Bonds:                   6
##########                       Formal_Charge:          -0.0200002
##########                     HBond_Acceptors:                   6
##########                        HBond_Donors:                   1
##########                         Heavy_Atoms:                  24
##########                          Grid_Score:          -34.758446
##########                     Grid_vdw_energy:          -31.724554
##########                      Grid_es_energy:           -3.033893
##########           Internal_energy_repulsive:           26.589764

@<TRIPOS>MOLECULE
ZINC001015955459
 46 48 1 0 0
SMALL
USER_CHARGES


@<TRIPOS>ATOM
      1 C1         -5.6441    2.8825   55.7666 C.3     1  ZINC001015955459   -0.1500
      2 C2         -4.6607    3.4323   54.7313 C.3     1  ZINC001015955459   -0.0300
      3 C3         -4.8653    4.9416   54.5850 C.3     1  ZINC001015955459   -0.1500
      4 C4         -3.2497    3.1582   55.1837 C.2     1  ZINC001015955459    0.0600
      5 C5         -2.1361    3.1465   54.4014 C.2     1  ZINC001015955459   -0.0800
      6 C6         -2.0827    3.3994   52.9500 C.2     1  ZINC001015955459    0.6100
      7 O7         -1.0082    3.5047   52.3902 O.2     1  ZINC001015955459   -0.5300
      8 N8         -3.2247    3.5139   52.2434 N.am    1  ZINC001015955459   -0.7100
      9 C9         -3.1716    3.7635   50.8009 C.3     1  ZINC001015955459    0.1400
     10 H10        -4.1794    3.8553   50.3959 H       1  ZINC001015955459    0.1000
     11 C11        -2.3579    5.0408   50.5077 C.3     1  ZINC001015955459   -0.1300
     12 C12        -1.1708    4.5700   49.6402 C.3     1  ZINC001015955459    0.0200
     13 N13        -1.6443    3.3110   49.0096 N.3     1  ZINC001015955459   -0.4900
     14 C14        -0.5124    2.4875   48.5636 C.3     1  ZINC001015955459    0.0800
     15 C15        -1.0285    1.2979   47.7959 C.ar    1  ZINC001015955459   -0.1100
     16 C16        -1.6481    1.4801   46.5738 C.ar    1  ZINC001015955459   -0.1100
     17 C17        -2.1175    0.3887   45.8665 C.ar    1  ZINC001015955459   -0.1000
     18 C18        -1.9770   -0.8841   46.3861 C.ar    1  ZINC001015955459   -0.1100
     19 C19        -1.3615   -1.0667   47.6119 C.ar    1  ZINC001015955459   -0.0300
     20 Cl20       -1.1851   -2.6653   48.2655 Cl      1  ZINC001015955459   -0.0700
     21 C21        -0.8873    0.0252   48.3165 C.ar    1  ZINC001015955459   -0.1000
     22 C22        -2.4086    2.6266   50.0876 C.3     1  ZINC001015955459    0.0100
     23 N23        -1.0822    2.8517   55.2098 N.2     1  ZINC001015955459   -0.4600
     24 C24        -1.5232    2.7005   56.4227 C.2     1  ZINC001015955459    0.1800
     25 O25        -2.8516    2.8796   56.4353 O.3     1  ZINC001015955459   -0.1900
     26 H26        -5.4696    3.3677   56.7269 H       1  ZINC001015955459    0.0600
     27 H27        -6.6648    3.0808   55.4393 H       1  ZINC001015955459    0.0700
     28 H28        -5.4984    1.8074   55.8708 H       1  ZINC001015955459    0.0600
     29 H29        -4.8352    2.9472   53.7709 H       1  ZINC001015955459    0.1300
     30 H30        -4.1647    5.3333   53.8475 H       1  ZINC001015955459    0.0600
     31 H31        -5.8860    5.1399   54.2577 H       1  ZINC001015955459    0.0700
     32 H32        -4.6909    5.4267   55.5452 H       1  ZINC001015955459    0.0600
     33 H33        -4.0817    3.4311   52.6902 H       1  ZINC001015955459    0.4100
     34 H34        -2.9663    5.7596   49.9589 H       1  ZINC001015955459    0.0800
     35 H35        -1.9980    5.4821   51.4372 H       1  ZINC001015955459    0.0700
     36 H36        -0.9391    5.3134   48.8775 H       1  ZINC001015955459    0.0900
     37 H37        -0.2973    4.3781   50.2631 H       1  ZINC001015955459    0.0500
     38 H38         0.1375    3.0809   47.9206 H       1  ZINC001015955459    0.0900
     39 H39         0.0507    2.1435   49.4313 H       1  ZINC001015955459    0.0900
     40 H40        -1.7622    2.4750   46.1695 H       1  ZINC001015955459    0.1300
     41 H41        -2.5979    0.5313   44.9099 H       1  ZINC001015955459    0.1300
     42 H42        -2.3478   -1.7361   45.8356 H       1  ZINC001015955459    0.1300
     43 H43        -0.4072   -0.1166   49.2736 H       1  ZINC001015955459    0.1300
     44 H44        -1.7289    2.1315   50.7811 H       1  ZINC001015955459    0.0700
     45 H45        -3.1088    1.9078   49.6619 H       1  ZINC001015955459    0.0900
     46 H46        -0.9161    2.4633   57.2838 H       1  ZINC001015955459    0.2600
@<TRIPOS>BOND
     1     1     2    1
     2     1    26    1
     3     1    27    1
     4     1    28    1
     5     2     3    1
     6     2     4    1
     7     2    29    1
     8     3    30    1
     9     3    31    1
    10     3    32    1
    11     4    25    1
    12     4     5    2
    13     5     6    1
    14     5    23    1
    15     6     7    2
    16     6     8   am
    17     8     9    1
    18     8    33    1
    19     9    10    1
    20     9    22    1
    21     9    11    1
    22    11    12    1
    23    11    34    1
    24    11    35    1
    25    12    13    1
    26    12    36    1
    27    12    37    1
    28    13    14    1
    29    13    22    1
    30    14    15    1
    31    14    38    1
    32    14    39    1
    33    15    21   ar
    34    15    16   ar
    35    16    17   ar
    36    16    40    1
    37    17    18   ar
    38    17    41    1
    39    18    19   ar
    40    18    42    1
    41    19    20    1
    42    19    21   ar
    43    21    43    1
    44    22    44    1
    45    22    45    1
    46    23    24    2
    47    24    25    1
    48    24    46    1
@<TRIPOS>SUBSTRUCTURE
     1 ZINC001015955459        1 TEMP              0 ****  ****    0 ROOT


##########                                Name:    ZINC001060578637
##########                DOCK_Rotatable_Bonds:                  10
##########                         Heavy_Atoms:                  25
##########                    Molecular_Weight:             345.401
##########                DOCK_Rotatable_Bonds:                  10
##########                       Formal_Charge:          -0.0400001
##########                     HBond_Acceptors:                   8
##########                        HBond_Donors:                   3
##########                         Heavy_Atoms:                  25
##########                          Grid_Score:          -34.719547
##########                     Grid_vdw_energy:          -30.522593
##########                      Grid_es_energy:           -4.196956
##########           Internal_energy_repulsive:           14.220682

@<TRIPOS>MOLECULE
ZINC001060578637
 48 49 1 0 0
SMALL
USER_CHARGES


@<TRIPOS>ATOM
      1 C1         -5.1953    3.8048   54.3763 C.3     1  ZINC001060578637   -0.1500
      2 C2         -4.2163    3.9089   55.5473 C.3     1  ZINC001060578637   -0.1300
      3 C3         -2.8860    3.2601   55.1593 C.3     1  ZINC001060578637    0.0700
      4 H4         -3.0332    2.1903   55.0111 H       1  ZINC001060578637    0.0900
      5 O5         -1.9318    3.4697   56.2021 O.3     1  ZINC001060578637   -0.3600
      6 C6         -2.2846    2.8578   57.4445 C.3     1  ZINC001060578637    0.0300
      7 C7         -2.3787    3.8791   53.8824 C.2     1  ZINC001060578637    0.5000
      8 O8         -1.7583    4.9205   53.9181 O.2     1  ZINC001060578637   -0.5200
      9 N9         -2.6145    3.2752   52.7007 N.am    1  ZINC001060578637   -0.7300
     10 C10        -2.1199    3.8760   51.4595 C.3     1  ZINC001060578637    0.1600
     11 C11        -1.9644    2.8055   50.4104 C.ar    1  ZINC001060578637   -0.1100
     12 C12        -3.0503    2.0312   50.0468 C.ar    1  ZINC001060578637   -0.0900
     13 C13        -2.9077    1.0492   49.0843 C.ar    1  ZINC001060578637   -0.1100
     14 C14        -1.6793    0.8419   48.4852 C.ar    1  ZINC001060578637   -0.0900
     15 C15        -1.5236   -0.2289   47.4363 C.3     1  ZINC001060578637    0.1800
     16 H16        -2.4783   -0.3875   46.9346 H       1  ZINC001060578637    0.1000
     17 C17        -1.0738   -1.5318   48.1003 C.3     1  ZINC001060578637   -0.1600
     18 N18        -0.5201    0.1908   46.4550 N.am    1  ZINC001060578637   -0.7000
     19 C19        -0.7913    1.1992   45.6028 C.2     1  ZINC001060578637    0.6100
     20 O20        -1.8695    1.7596   45.6475 O.2     1  ZINC001060578637   -0.5300
     21 C21         0.2194    1.6228   44.6163 C.2     1  ZINC001060578637    0.1200
     22 N22         1.3496    1.0082   44.3398 N.2     1  ZINC001060578637   -0.2400
     23 N23         1.9800    1.6607   43.4286 N.2     1  ZINC001060578637   -0.2900
     24 C24         1.2903    2.7186   43.0778 C.2     1  ZINC001060578637    0.1900
     25 N25         0.1578    2.7288   43.8083 N.pl3   1  ZINC001060578637   -0.5500
     26 C26        -0.5938    1.6172   48.8478 C.ar    1  ZINC001060578637   -0.1100
     27 C27        -0.7373    2.6017   49.8074 C.ar    1  ZINC001060578637   -0.0900
     28 H28        -6.1323    4.2943   54.6415 H       1  ZINC001060578637    0.0600
     29 H29        -4.7667    4.2910   53.5000 H       1  ZINC001060578637    0.0500
     30 H30        -5.3844    2.7547   54.1531 H       1  ZINC001060578637    0.0600
     31 H31        -4.0511    4.9585   55.7906 H       1  ZINC001060578637    0.0800
     32 H32        -4.6314    3.3958   56.4148 H       1  ZINC001060578637    0.0800
     33 H33        -1.4751    2.9972   58.1610 H       1  ZINC001060578637    0.0900
     34 H34        -3.1945    3.3175   57.8303 H       1  ZINC001060578637    0.0500
     35 H35        -2.4532    1.7922   57.2896 H       1  ZINC001060578637    0.0400
     36 H36        -3.1119    2.4429   52.6722 H       1  ZINC001060578637    0.4000
     37 H37        -2.8296    4.6262   51.1109 H       1  ZINC001060578637    0.0800
     38 H38        -1.1543    4.3472   51.6436 H       1  ZINC001060578637    0.0800
     39 H39        -4.0100    2.1932   50.5147 H       1  ZINC001060578637    0.1300
     40 H40        -3.7559    0.4438   48.8007 H       1  ZINC001060578637    0.1300
     41 H41        -0.1193   -1.3731   48.6020 H       1  ZINC001060578637    0.0600
     42 H42        -1.8205   -1.8441   48.8305 H       1  ZINC001060578637    0.0700
     43 H43        -0.9613   -2.3063   47.3417 H       1  ZINC001060578637    0.0700
     44 H44         0.3396   -0.2570   46.4185 H       1  ZINC001060578637    0.4100
     45 H45         1.5762    3.4483   42.3346 H       1  ZINC001060578637    0.2300
     46 H46        -0.5534    3.3875   43.7735 H       1  ZINC001060578637    0.4400
     47 H47         0.3658    1.4554   48.3794 H       1  ZINC001060578637    0.1300
     48 H48         0.1109    3.2073   50.0908 H       1  ZINC001060578637    0.1300
@<TRIPOS>BOND
     1     1     2    1
     2     1    28    1
     3     1    29    1
     4     1    30    1
     5     2     3    1
     6     2    31    1
     7     2    32    1
     8     3     4    1
     9     3     5    1
    10     3     7    1
    11     5     6    1
    12     6    33    1
    13     6    34    1
    14     6    35    1
    15     7     8    2
    16     7     9   am
    17     9    10    1
    18     9    36    1
    19    10    11    1
    20    10    37    1
    21    10    38    1
    22    11    27   ar
    23    11    12   ar
    24    12    13   ar
    25    12    39    1
    26    13    14   ar
    27    13    40    1
    28    14    15    1
    29    14    26   ar
    30    15    16    1
    31    15    17    1
    32    15    18    1
    33    17    41    1
    34    17    42    1
    35    17    43    1
    36    18    19   am
    37    18    44    1
    38    19    20    2
    39    19    21    1
    40    21    25    1
    41    21    22    2
    42    22    23    1
    43    23    24    2
    44    24    25    1
    45    24    45    1
    46    25    46    1
    47    26    27   ar
    48    26    47    1
    49    27    48    1
@<TRIPOS>SUBSTRUCTURE
     1 ZINC001060578637        1 TEMP              0 ****  ****    0 ROOT


##########                                Name:    ZINC000550217006
##########                DOCK_Rotatable_Bonds:                   7
##########                         Heavy_Atoms:                  27
##########                    Molecular_Weight:             367.404
##########                DOCK_Rotatable_Bonds:                   7
##########                       Formal_Charge:          0.00999951
##########                     HBond_Acceptors:                   7
##########                        HBond_Donors:                   3
##########                         Heavy_Atoms:                  27
##########                          Grid_Score:          -34.697948
##########                     Grid_vdw_energy:          -35.124104
##########                      Grid_es_energy:            0.426154
##########           Internal_energy_repulsive:           10.519362

@<TRIPOS>MOLECULE
ZINC000550217006
 48 50 1 0 0
SMALL
USER_CHARGES


@<TRIPOS>ATOM
      1 C1         -5.7460    3.3135   57.0138 C.3     1  ZINC000550217006   -0.1500
      2 C2         -4.2841    2.9129   56.8051 C.3     1  ZINC000550217006    0.0500
      3 O3         -3.7705    3.5721   55.6460 O.3     1  ZINC000550217006   -0.3100
      4 C4         -2.4843    3.3007   55.3010 C.ar    1  ZINC000550217006    0.1400
      5 C5         -1.7434    2.3918   56.0419 C.ar    1  ZINC000550217006   -0.2100
      6 C6         -0.4360    2.1171   55.6888 C.ar    1  ZINC000550217006   -0.0800
      7 C7          0.1338    2.7479   54.5986 C.ar    1  ZINC000550217006   -0.1600
      8 C8         -0.6026    3.6549   53.8587 C.ar    1  ZINC000550217006   -0.0700
      9 C9         -1.9118    3.9282   54.2038 C.ar    1  ZINC000550217006   -0.1200
     10 C10        -2.7140    4.9163   53.3967 C.3     1  ZINC000550217006   -0.0800
     11 C11        -3.6093    4.1623   52.4113 C.3     1  ZINC000550217006    0.1300
     12 N12        -2.8236    3.7715   51.2383 N.am    1  ZINC000550217006   -0.7200
     13 C13        -3.2222    2.7346   50.4752 C.2     1  ZINC000550217006    0.5600
     14 O14        -4.2326    2.1228   50.7611 O.2     1  ZINC000550217006   -0.5300
     15 C15        -2.4291    2.3406   49.2886 C.ar    1  ZINC000550217006   -0.0800
     16 C16        -1.4440    3.1960   48.7894 C.ar    1  ZINC000550217006   -0.1000
     17 C17        -0.7115    2.8273   47.6878 C.ar    1  ZINC000550217006   -0.0500
     18 C18        -0.9396    1.5950   47.0532 C.ar    1  ZINC000550217006   -0.1300
     19 C19        -1.9198    0.7369   47.5506 C.ar    1  ZINC000550217006    0.1800
     20 C20        -2.6588    1.1168   48.6724 C.ar    1  ZINC000550217006   -0.0900
     21 N21        -2.2038   -0.4993   46.9959 N.am    1  ZINC000550217006   -0.6600
     22 C22        -2.2667   -0.7694   45.6956 C.2     1  ZINC000550217006    0.5100
     23 O23        -2.5713   -1.8885   45.3412 O.2     1  ZINC000550217006   -0.5100
     24 C24        -1.9717    0.2722   44.6513 C.3     1  ZINC000550217006    0.0900
     25 N25        -0.5731    0.6828   44.7755 N.am    1  ZINC000550217006   -0.7100
     26 C26        -0.1171    1.2765   45.8771 C.2     1  ZINC000550217006    0.5600
     27 O27         1.0605    1.5758   45.9125 O.2     1  ZINC000550217006   -0.5200
     28 H28        -6.3306    3.0223   56.1412 H       1  ZINC000550217006    0.0700
     29 H29        -6.1377    2.8108   57.8980 H       1  ZINC000550217006    0.0800
     30 H30        -5.8109    4.3929   57.1509 H       1  ZINC000550217006    0.0700
     31 H31        -3.6995    3.2043   57.6777 H       1  ZINC000550217006    0.0600
     32 H32        -4.2192    1.8335   56.6680 H       1  ZINC000550217006    0.0600
     33 H33        -2.1878    1.8993   56.8941 H       1  ZINC000550217006    0.1300
     34 H34         0.1412    1.4095   56.2653 H       1  ZINC000550217006    0.1300
     35 H35         1.1559    2.5322   54.3244 H       1  ZINC000550217006    0.1300
     36 H36        -0.1551    4.1466   53.0076 H       1  ZINC000550217006    0.1300
     37 H37        -3.3329    5.5143   54.0657 H       1  ZINC000550217006    0.0800
     38 H38        -2.0375    5.5700   52.8462 H       1  ZINC000550217006    0.0800
     39 H39        -4.0103    3.2709   52.8936 H       1  ZINC000550217006    0.0700
     40 H40        -4.4307    4.8076   52.0999 H       1  ZINC000550217006    0.0700
     41 H41        -2.0163    4.2590   51.0108 H       1  ZINC000550217006    0.4000
     42 H42        -1.2589    4.1460   49.2688 H       1  ZINC000550217006    0.1400
     43 H43         0.0483    3.4924   47.3049 H       1  ZINC000550217006    0.1500
     44 H44        -3.4212    0.4571   49.0597 H       1  ZINC000550217006    0.1500
     45 H45        -2.3709   -1.2322   47.6091 H       1  ZINC000550217006    0.4200
     46 H46        -2.1428   -0.1464   43.6595 H       1  ZINC000550217006    0.1300
     47 H47        -2.6204    1.1349   44.8025 H       1  ZINC000550217006    0.1000
     48 H48         0.0363    0.5187   44.0389 H       1  ZINC000550217006    0.4200
@<TRIPOS>BOND
     1     1     2    1
     2     1    28    1
     3     1    29    1
     4     1    30    1
     5     2     3    1
     6     2    31    1
     7     2    32    1
     8     3     4    1
     9     4     9   ar
    10     4     5   ar
    11     5     6   ar
    12     5    33    1
    13     6     7   ar
    14     6    34    1
    15     7     8   ar
    16     7    35    1
    17     8     9   ar
    18     8    36    1
    19     9    10    1
    20    10    11    1
    21    10    37    1
    22    10    38    1
    23    11    12    1
    24    11    39    1
    25    11    40    1
    26    12    13   am
    27    12    41    1
    28    13    14    2
    29    13    15    1
    30    15    20   ar
    31    15    16   ar
    32    16    17   ar
    33    16    42    1
    34    17    18   ar
    35    17    43    1
    36    18    26    1
    37    18    19   ar
    38    19    20   ar
    39    19    21    1
    40    20    44    1
    41    21    22   am
    42    21    45    1
    43    22    23    2
    44    22    24    1
    45    24    25    1
    46    24    46    1
    47    24    47    1
    48    25    26   am
    49    25    48    1
    50    26    27    2
@<TRIPOS>SUBSTRUCTURE
     1 ZINC000550217006        1 TEMP              0 ****  ****    0 ROOT


##########                                Name:    ZINC001124460178
##########                DOCK_Rotatable_Bonds:                  12
##########                         Heavy_Atoms:                  22
##########                    Molecular_Weight:             328.479
##########                DOCK_Rotatable_Bonds:                  12
##########                       Formal_Charge:          -0.0100003
##########                     HBond_Acceptors:                   7
##########                        HBond_Donors:                   2
##########                         Heavy_Atoms:                  22
##########                          Grid_Score:          -34.662567
##########                     Grid_vdw_energy:          -32.014706
##########                      Grid_es_energy:           -2.647862
##########           Internal_energy_repulsive:           25.263630

@<TRIPOS>MOLECULE
ZINC001124460178
 50 50 1 0 0
SMALL
USER_CHARGES


@<TRIPOS>ATOM
      1 C1         -1.4686   -2.5370   47.7739 C.3     1  ZINC001124460178   -0.0700
      2 C2         -1.6580   -1.1859   47.1338 C.2     1  ZINC001124460178    0.3100
      3 N3         -2.2729   -1.0634   45.9936 N.2     1  ZINC001124460178   -0.5000
      4 S4         -2.2654    0.5991   45.6412 S.3     1  ZINC001124460178    0.1800
      5 C5         -1.4194    1.0399   47.0761 C.2     1  ZINC001124460178    0.3400
      6 N6         -1.0442    2.3097   47.4759 N.pl3   1  ZINC001124460178   -0.6600
      7 C7         -0.2517    2.4897   48.6948 C.3     1  ZINC001124460178    0.0900
      8 C8         -0.9568    3.4843   49.6193 C.3     1  ZINC001124460178    0.0800
      9 H9         -0.3725    3.6103   50.5308 H       1  ZINC001124460178    0.1200
     10 O10        -1.0828    4.7439   48.9563 O.3     1  ZINC001124460178   -0.5500
     11 C11        -2.3471    2.9534   49.9741 C.3     1  ZINC001124460178    0.0900
     12 N12        -2.9003    3.7354   51.0826 N.am    1  ZINC001124460178   -0.6100
     13 C13        -3.9257    4.7493   50.8238 C.3     1  ZINC001124460178    0.0800
     14 C14        -2.4657    3.5223   52.3404 C.2     1  ZINC001124460178    0.5100
     15 O15        -1.6157    2.6840   52.5544 O.2     1  ZINC001124460178   -0.5400
     16 C16        -3.0359    4.3255   53.4809 C.3     1  ZINC001124460178   -0.1400
     17 C17        -2.5313    3.7558   54.8083 C.3     1  ZINC001124460178   -0.1100
     18 C18        -1.1986    4.4139   55.1718 C.3     1  ZINC001124460178   -0.1200
     19 C19        -0.8132    4.0291   56.6016 C.3     1  ZINC001124460178   -0.1200
     20 C20        -0.6576    2.5101   56.6966 C.3     1  ZINC001124460178   -0.1000
     21 C21         0.4476    2.0500   55.7439 C.3     1  ZINC001124460178   -0.1500
     22 C22        -0.2885    2.1239   58.1304 C.3     1  ZINC001124460178   -0.1500
     23 N23        -1.2126   -0.0943   47.7114 N.2     1  ZINC001124460178   -0.5800
     24 H24        -2.3198   -2.7562   48.4185 H       1  ZINC001124460178    0.0900
     25 H25        -1.3943   -3.2993   46.9984 H       1  ZINC001124460178    0.0900
     26 H26        -0.5546   -2.5327   48.3679 H       1  ZINC001124460178    0.0900
     27 H27        -1.3060    3.0811   46.9492 H       1  ZINC001124460178    0.4200
     28 H28        -0.1462    1.5320   49.2044 H       1  ZINC001124460178    0.0800
     29 H29         0.7347    2.8729   48.4336 H       1  ZINC001124460178    0.0900
     30 H30        -1.5159    4.6925   48.0932 H       1  ZINC001124460178    0.3800
     31 H31        -3.0014    3.0398   49.1065 H       1  ZINC001124460178    0.0900
     32 H32        -2.2720    1.9070   50.2697 H       1  ZINC001124460178    0.1000
     33 H33        -4.9132    4.2931   50.8931 H       1  ZINC001124460178    0.0600
     34 H34        -3.8416    5.5475   51.5613 H       1  ZINC001124460178    0.0800
     35 H35        -3.7850    5.1615   49.8247 H       1  ZINC001124460178    0.0800
     36 H36        -2.7195    5.3644   53.3877 H       1  ZINC001124460178    0.0900
     37 H37        -4.1244    4.2733   53.4536 H       1  ZINC001124460178    0.0900
     38 H38        -3.2619    3.9580   55.5916 H       1  ZINC001124460178    0.0700
     39 H39        -2.3906    2.6793   54.7117 H       1  ZINC001124460178    0.0700
     40 H40        -0.4255    4.0734   54.4830 H       1  ZINC001124460178    0.0600
     41 H41        -1.2970    5.4970   55.1010 H       1  ZINC001124460178    0.0600
     42 H42         0.1297    4.5081   56.8651 H       1  ZINC001124460178    0.0600
     43 H43        -1.5926    4.3582   57.2890 H       1  ZINC001124460178    0.0600
     44 H44        -1.5972    2.0307   56.4216 H       1  ZINC001124460178    0.0700
     45 H45         1.3872    2.5294   56.0189 H       1  ZINC001124460178    0.0500
     46 H46         0.5585    0.9677   55.8116 H       1  ZINC001124460178    0.0500
     47 H47         0.1847    2.3250   54.7226 H       1  ZINC001124460178    0.0500
     48 H48        -1.0760    2.4517   58.8091 H       1  ZINC001124460178    0.0600
     49 H49        -0.1777    1.0416   58.1981 H       1  ZINC001124460178    0.0500
     50 H50         0.6509    2.6033   58.4054 H       1  ZINC001124460178    0.0500
@<TRIPOS>BOND
     1     1     2    1
     2     1    24    1
     3     1    25    1
     4     1    26    1
     5     2    23    1
     6     2     3    2
     7     3     4    1
     8     4     5    1
     9     5     6    1
    10     5    23    2
    11     6     7    1
    12     6    27    1
    13     7     8    1
    14     7    28    1
    15     7    29    1
    16     8     9    1
    17     8    10    1
    18     8    11    1
    19    10    30    1
    20    11    12    1
    21    11    31    1
    22    11    32    1
    23    12    13    1
    24    12    14   am
    25    13    33    1
    26    13    34    1
    27    13    35    1
    28    14    15    2
    29    14    16    1
    30    16    17    1
    31    16    36    1
    32    16    37    1
    33    17    18    1
    34    17    38    1
    35    17    39    1
    36    18    19    1
    37    18    40    1
    38    18    41    1
    39    19    20    1
    40    19    42    1
    41    19    43    1
    42    20    21    1
    43    20    22    1
    44    20    44    1
    45    21    45    1
    46    21    46    1
    47    21    47    1
    48    22    48    1
    49    22    49    1
    50    22    50    1
@<TRIPOS>SUBSTRUCTURE
     1 ZINC001124460178        1 TEMP              0 ****  ****    0 ROOT


##########                                Name:    ZINC000058174787
##########                DOCK_Rotatable_Bonds:                   9
##########                         Heavy_Atoms:                  27
##########                    Molecular_Weight:             413.882
##########                DOCK_Rotatable_Bonds:                   9
##########                       Formal_Charge:           0.0200002
##########                     HBond_Acceptors:                  10
##########                        HBond_Donors:                   1
##########                         Heavy_Atoms:                  27
##########                          Grid_Score:          -34.600395
##########                     Grid_vdw_energy:          -32.327145
##########                      Grid_es_energy:           -2.273249
##########           Internal_energy_repulsive:            5.308756

@<TRIPOS>MOLECULE
ZINC000058174787
 47 48 1 0 0
SMALL
USER_CHARGES


@<TRIPOS>ATOM
      1 C1          0.3086    2.0162   55.2223 C.3     1  ZINC000058174787   -0.0700
      2 C2         -0.9397    2.7572   54.8173 C.2     1  ZINC000058174787    0.2100
      3 N3         -1.1234    3.3742   53.6822 N.2     1  ZINC000058174787   -0.4200
      4 C4         -2.3487    3.9198   53.6685 C.2     1  ZINC000058174787   -0.5600
      5 S5         -3.0522    4.8524   52.3495 S.o2    1  ZINC000058174787    2.7400
      6 O6         -4.4568    4.6488   52.4187 O.2     1  ZINC000058174787   -0.9500
      7 O7         -2.4497    6.1382   52.4013 O.2     1  ZINC000058174787   -0.9600
      8 N8         -2.5481    4.1565   50.9338 N.am    1  ZINC000058174787   -1.1100
      9 C9         -2.8824    2.7598   50.6445 C.3     1  ZINC000058174787    0.1300
     10 C10        -1.9410    2.2233   49.5642 C.3     1  ZINC000058174787   -0.1200
     11 C11        -2.5405    0.9878   48.9439 C.2     1  ZINC000058174787    0.4700
     12 O12        -3.6141    0.5821   49.3218 O.2     1  ZINC000058174787   -0.5000
     13 O13        -1.8819    0.3378   47.9715 O.3     1  ZINC000058174787   -0.3300
     14 C14        -1.6203    1.0733   46.7472 C.3     1  ZINC000058174787    0.0400
     15 H15        -1.9787    2.0970   46.8546 H       1  ZINC000058174787    0.1200
     16 C16        -2.3463    0.3984   45.5817 C.3     1  ZINC000058174787   -0.1700
     17 C17        -0.1379    1.0860   46.4759 C.2     1  ZINC000058174787    0.4000
     18 O18         0.5776    0.2451   46.9775 O.2     1  ZINC000058174787   -0.4200
     19 C19         0.4411    2.1184   45.6026 C.ar    1  ZINC000058174787   -0.1600
     20 C20         0.9000    1.7813   44.3247 C.ar    1  ZINC000058174787   -0.0600
     21 C21         1.4409    2.7539   43.5118 C.ar    1  ZINC000058174787   -0.1200
     22 C22         1.5308    4.0629   43.9574 C.ar    1  ZINC000058174787    0.0000
     23 Cl23        2.2130    5.2814   42.9263 Cl      1  ZINC000058174787   -0.0500
     24 C24         1.0783    4.4039   45.2219 C.ar    1  ZINC000058174787   -0.1200
     25 C25         0.5303    3.4430   46.0438 C.ar    1  ZINC000058174787   -0.0400
     26 C26        -2.9468    3.6299   54.8398 C.2     1  ZINC000058174787    0.0700
     27 N27        -2.0555    2.8879   55.5667 N.pl3   1  ZINC000058174787   -0.4500
     28 C28        -2.2689    2.3443   56.9103 C.3     1  ZINC000058174787    0.0600
     29 H29         0.2315    0.9755   54.9074 H       1  ZINC000058174787    0.0900
     30 H30         1.1747    2.4764   54.7468 H       1  ZINC000058174787    0.1000
     31 H31         0.4222    2.0606   56.3054 H       1  ZINC000058174787    0.0800
     32 H32        -2.0315    4.6736   50.2963 H       1  ZINC000058174787    0.4200
     33 H33        -2.7722    2.1645   51.5508 H       1  ZINC000058174787    0.0900
     34 H34        -3.9122    2.6981   50.2922 H       1  ZINC000058174787    0.0900
     35 H35        -1.7990    2.9833   48.7959 H       1  ZINC000058174787    0.1200
     36 H36        -0.9786    1.9748   50.0117 H       1  ZINC000058174787    0.1200
     37 H37        -1.9877   -0.6253   45.4743 H       1  ZINC000058174787    0.0800
     38 H38        -3.4184    0.3892   45.7779 H       1  ZINC000058174787    0.0800
     39 H39        -2.1499    0.9505   44.6626 H       1  ZINC000058174787    0.0800
     40 H40         0.8309    0.7614   43.9763 H       1  ZINC000058174787    0.1400
     41 H41         1.7958    2.4951   42.5251 H       1  ZINC000058174787    0.1400
     42 H42         1.1515    5.4262   45.5626 H       1  ZINC000058174787    0.1400
     43 H43         0.1777    3.7102   47.0289 H       1  ZINC000058174787    0.1500
     44 H44        -3.9405    3.9230   55.1450 H       1  ZINC000058174787    0.1900
     45 H45        -2.7053    1.3484   56.8342 H       1  ZINC000058174787    0.0900
     46 H46        -1.3146    2.2838   57.4335 H       1  ZINC000058174787    0.1000
     47 H47        -2.9454    2.9963   57.4628 H       1  ZINC000058174787    0.0900
@<TRIPOS>BOND
     1     1     2    1
     2     1    29    1
     3     1    30    1
     4     1    31    1
     5     2    27    1
     6     2     3    2
     7     3     4    1
     8     4     5    1
     9     4    26    2
    10     5     6    2
    11     5     7    2
    12     5     8   am
    13     8     9    1
    14     8    32    1
    15     9    10    1
    16     9    33    1
    17     9    34    1
    18    10    11    1
    19    10    35    1
    20    10    36    1
    21    11    12    2
    22    11    13    1
    23    13    14    1
    24    14    15    1
    25    14    16    1
    26    14    17    1
    27    16    37    1
    28    16    38    1
    29    16    39    1
    30    17    18    2
    31    17    19    1
    32    19    25   ar
    33    19    20   ar
    34    20    21   ar
    35    20    40    1
    36    21    22   ar
    37    21    41    1
    38    22    23    1
    39    22    24   ar
    40    24    25   ar
    41    24    42    1
    42    25    43    1
    43    26    27    1
    44    26    44    1
    45    27    28    1
    46    28    45    1
    47    28    46    1
    48    28    47    1
@<TRIPOS>SUBSTRUCTURE
     1 ZINC000058174787        1 TEMP              0 ****  ****    0 ROOT


##########                                Name:    ZINC000563265674
##########                DOCK_Rotatable_Bonds:                   7
##########                         Heavy_Atoms:                  25
##########                    Molecular_Weight:             386.859
##########                DOCK_Rotatable_Bonds:                   7
##########                       Formal_Charge:          0.00999963
##########                     HBond_Acceptors:                  10
##########                        HBond_Donors:                   2
##########                         Heavy_Atoms:                  25
##########                          Grid_Score:          -34.540260
##########                     Grid_vdw_energy:          -31.595078
##########                      Grid_es_energy:           -2.945182
##########           Internal_energy_repulsive:           11.628516

@<TRIPOS>MOLECULE
ZINC000563265674
 44 45 1 0 0
SMALL
USER_CHARGES


@<TRIPOS>ATOM
      1 C1         -7.2495    1.8690   56.5662 C.3     1  ZINC000563265674   -0.0600
      2 C2         -5.7623    2.1010   56.4929 C.2     1  ZINC000563265674    0.1700
      3 N3         -4.8381    1.1894   56.5502 N.2     1  ZINC000563265674   -0.3800
      4 O4         -3.7405    1.6983   56.4625 O.3     1  ZINC000563265674    0.0900
      5 C5         -3.8641    3.0231   56.3371 C.2     1  ZINC000563265674    0.1900
      6 C6         -2.7424    4.0203   56.2008 C.3     1  ZINC000563265674    0.2100
      7 C7         -3.3003    5.4379   56.3432 C.3     1  ZINC000563265674   -0.1400
      8 C8         -1.7016    3.7696   57.2937 C.3     1  ZINC000563265674   -0.1800
      9 N9         -2.1130    3.8721   54.8818 N.3     1  ZINC000563265674   -0.6600
     10 C10        -3.1188    3.9067   53.8117 C.3     1  ZINC000563265674    0.0400
     11 C11        -2.4924    3.4523   52.5186 C.2     1  ZINC000563265674    0.5200
     12 O12        -1.5369    2.7054   52.5372 O.2     1  ZINC000563265674   -0.4900
     13 N13        -2.9938    3.8757   51.3415 N.am    1  ZINC000563265674   -0.6700
     14 C14        -2.4119    3.4536   50.1403 C.ar    1  ZINC000563265674    0.1400
     15 C15        -2.5440    2.1343   49.7294 C.ar    1  ZINC000563265674   -0.0300
     16 C16        -1.9690    1.7207   48.5432 C.ar    1  ZINC000563265674   -0.6400
     17 S17        -2.1368    0.0462   48.0211 S.o2    1  ZINC000563265674    2.5000
     18 C18        -0.4402   -0.5960   48.0082 C.3     1  ZINC000563265674   -0.6500
     19 O19        -2.8949   -0.5687   49.0537 O.2     1  ZINC000563265674   -0.9300
     20 O20        -2.6439    0.1412   46.6971 O.2     1  ZINC000563265674   -0.9300
     21 C21        -1.2624    2.6189   47.7652 C.ar    1  ZINC000563265674   -0.0300
     22 C22        -1.1281    3.9342   48.1712 C.ar    1  ZINC000563265674   -0.1100
     23 C23        -1.7055    4.3558   49.3537 C.ar    1  ZINC000563265674   -0.0200
     24 Cl24       -1.5373    6.0070   49.8627 Cl      1  ZINC000563265674   -0.0500
     25 N25        -5.1481    3.2890   56.3503 N.2     1  ZINC000563265674   -0.4700
     26 H26        -7.6421    1.7080   55.5621 H       1  ZINC000563265674    0.0900
     27 H27        -7.4505    0.9909   57.1800 H       1  ZINC000563265674    0.0900
     28 H28        -7.7318    2.7403   57.0095 H       1  ZINC000563265674    0.0900
     29 H29        -3.7674    5.5479   57.3219 H       1  ZINC000563265674    0.0800
     30 H30        -2.4890    6.1592   56.2447 H       1  ZINC000563265674    0.0800
     31 H31        -4.0418    5.6164   55.5646 H       1  ZINC000563265674    0.0700
     32 H32        -1.3042    2.7598   57.1923 H       1  ZINC000563265674    0.0700
     33 H33        -0.8903    4.4909   57.1952 H       1  ZINC000563265674    0.0800
     34 H34        -2.1687    3.8796   58.2725 H       1  ZINC000563265674    0.0800
     35 H35        -1.4065    4.5778   54.7369 H       1  ZINC000563265674    0.3600
     36 H36        -3.9450    3.2435   54.0680 H       1  ZINC000563265674    0.1200
     37 H37        -3.4921    4.9243   53.6967 H       1  ZINC000563265674    0.0800
     38 H38        -3.7580    4.4730   51.3266 H       1  ZINC000563265674    0.4200
     39 H39        -3.0954    1.4317   50.3366 H       1  ZINC000563265674    0.1700
     40 H40        -0.0164   -0.5226   49.0097 H       1  ZINC000563265674    0.1300
     41 H41        -0.4491   -1.6393   47.6930 H       1  ZINC000563265674    0.1400
     42 H42         0.1641   -0.0118   47.3142 H       1  ZINC000563265674    0.1400
     43 H43        -0.8140    2.2926   46.8385 H       1  ZINC000563265674    0.1500
     44 H44        -0.5753    4.6333   47.5613 H       1  ZINC000563265674    0.1500
@<TRIPOS>BOND
     1     1     2    1
     2     1    26    1
     3     1    27    1
     4     1    28    1
     5     2    25    1
     6     2     3    2
     7     3     4    1
     8     4     5    1
     9     5     6    1
    10     5    25    2
    11     6     7    1
    12     6     8    1
    13     6     9    1
    14     7    29    1
    15     7    30    1
    16     7    31    1
    17     8    32    1
    18     8    33    1
    19     8    34    1
    20     9    10    1
    21     9    35    1
    22    10    11    1
    23    10    36    1
    24    10    37    1
    25    11    12    2
    26    11    13   am
    27    13    14    1
    28    13    38    1
    29    14    23   ar
    30    14    15   ar
    31    15    16   ar
    32    15    39    1
    33    16    17    1
    34    16    21   ar
    35    17    18    1
    36    17    19    2
    37    17    20    2
    38    18    40    1
    39    18    41    1
    40    18    42    1
    41    21    22   ar
    42    21    43    1
    43    22    23   ar
    44    22    44    1
    45    23    24    1
@<TRIPOS>SUBSTRUCTURE
     1 ZINC000563265674        1 TEMP              0 ****  ****    0 ROOT


##########                                Name:    ZINC000523863446
##########                DOCK_Rotatable_Bonds:                  10
##########                         Heavy_Atoms:                  29
##########                    Molecular_Weight:             396.533
##########                DOCK_Rotatable_Bonds:                  10
##########                       Formal_Charge:          -0.0200008
##########                     HBond_Acceptors:                   6
##########                        HBond_Donors:                   1
##########                         Heavy_Atoms:                  29
##########                          Grid_Score:          -34.530365
##########                     Grid_vdw_energy:          -32.613430
##########                      Grid_es_energy:           -1.916935
##########           Internal_energy_repulsive:           22.386448

@<TRIPOS>MOLECULE
ZINC000523863446
 61 63 1 0 0
SMALL
USER_CHARGES


@<TRIPOS>ATOM
      1 C1         -2.2195    3.3144   54.3815 C.3     1  ZINC000523863446   -0.1700
      2 C2         -0.9681    3.4825   53.5173 C.3     1  ZINC000523863446    0.1500
      3 H3         -0.9865    2.7549   52.7059 H       1  ZINC000523863446    0.1300
      4 C4         -0.9378    4.8752   52.9426 C.2     1  ZINC000523863446    0.5100
      5 O5         -0.4032    5.7735   53.5576 O.2     1  ZINC000523863446   -0.5100
      6 N6         -1.5049    5.1226   51.7453 N.am    1  ZINC000523863446   -0.6000
      7 C7         -1.4740    6.4761   51.1857 C.3     1  ZINC000523863446    0.0700
      8 C8         -2.1524    4.0378   51.0033 C.3     1  ZINC000523863446    0.1000
      9 C9         -1.1437    3.3742   50.1015 C.2     1  ZINC000523863446    0.5000
     10 O10         0.0328    3.3854   50.3958 O.2     1  ZINC000523863446   -0.5200
     11 N11        -1.5491    2.7685   48.9678 N.am    1  ZINC000523863446   -0.7200
     12 C12        -0.5688    2.1220   48.0920 C.3     1  ZINC000523863446    0.1900
     13 H13         0.4381    2.3724   48.4262 H       1  ZINC000523863446    0.1000
     14 C14        -0.7661    2.6123   46.6561 C.3     1  ZINC000523863446   -0.1200
     15 C15         0.5113    2.3627   45.8519 C.3     1  ZINC000523863446   -0.0900
     16 C16         0.2067    1.4105   44.6936 C.3     1  ZINC000523863446   -0.1200
     17 C17         1.4841    1.1609   43.8892 C.3     1  ZINC000523863446   -0.1200
     18 C18         2.0053    2.4882   43.3348 C.3     1  ZINC000523863446   -0.1200
     19 C19         2.3098    3.4403   44.4931 C.3     1  ZINC000523863446   -0.1200
     20 C20         1.0325    3.6900   45.2973 C.3     1  ZINC000523863446   -0.1100
     21 C21        -0.7580    0.6278   48.1430 C.ar    1  ZINC000523863446   -0.0900
     22 C22         0.3249   -0.1986   48.3781 C.ar    1  ZINC000523863446   -0.1100
     23 C23         0.1513   -1.5691   48.4248 C.ar    1  ZINC000523863446   -0.1200
     24 C24        -1.1055   -2.1134   48.2369 C.ar    1  ZINC000523863446   -0.1200
     25 C25        -2.1886   -1.2871   48.0027 C.ar    1  ZINC000523863446   -0.1200
     26 C26        -2.0157    0.0838   47.9602 C.ar    1  ZINC000523863446   -0.1000
     27 N27         0.2254    3.2671   54.3391 N.pl3   1  ZINC000523863446   -0.3600
     28 C28         0.3137    2.4550   55.4133 C.2     1  ZINC000523863446    0.0600
     29 C29         1.5778    2.5369   55.8894 C.2     1  ZINC000523863446   -0.2700
     30 C30         2.2861    3.4295   55.0784 C.2     1  ZINC000523863446    0.0500
     31 N31         1.4781    3.8632   54.1451 N.2     1  ZINC000523863446   -0.2900
     32 H32        -2.2011    4.0419   55.1930 H       1  ZINC000523863446    0.0700
     33 H33        -3.1074    3.4745   53.7700 H       1  ZINC000523863446    0.1000
     34 H34        -2.2414    2.3070   54.7971 H       1  ZINC000523863446    0.0800
     35 H35        -0.5755    6.5989   50.5810 H       1  ZINC000523863446    0.0700
     36 H36        -2.3551    6.6321   50.5632 H       1  ZINC000523863446    0.0800
     37 H37        -1.4685    7.2044   51.9966 H       1  ZINC000523863446    0.0800
     38 H38        -2.5501    3.3046   51.7051 H       1  ZINC000523863446    0.1100
     39 H39        -2.9658    4.4439   50.4021 H       1  ZINC000523863446    0.1100
     40 H40        -2.4899    2.7607   48.7318 H       1  ZINC000523863446    0.4000
     41 H41        -1.5950    2.0724   46.1984 H       1  ZINC000523863446    0.0800
     42 H42        -0.9877    3.6795   46.6638 H       1  ZINC000523863446    0.0700
     43 H43         1.2670    1.9174   46.4989 H       1  ZINC000523863446    0.0700
     44 H44        -0.1646    0.4650   45.0885 H       1  ZINC000523863446    0.0600
     45 H45        -0.5490    1.8558   44.0464 H       1  ZINC000523863446    0.0600
     46 H46         2.2398    0.7156   44.5364 H       1  ZINC000523863446    0.0600
     47 H47         1.2671    0.4826   43.0640 H       1  ZINC000523863446    0.0600
     48 H48         2.9152    2.3103   42.7618 H       1  ZINC000523863446    0.0600
     49 H49         1.2496    2.9334   42.6876 H       1  ZINC000523863446    0.0600
     50 H50         3.0655    2.9950   45.1403 H       1  ZINC000523863446    0.0600
     51 H51         2.6812    4.3859   44.0980 H       1  ZINC000523863446    0.0600
     52 H52         0.2769    4.1352   44.6502 H       1  ZINC000523863446    0.0600
     53 H53         1.2495    4.3682   46.1225 H       1  ZINC000523863446    0.0600
     54 H54         1.3067    0.2267   48.5249 H       1  ZINC000523863446    0.1200
     55 H55         0.9975   -2.2148   48.6078 H       1  ZINC000523863446    0.1200
     56 H56        -1.2410   -3.1843   48.2727 H       1  ZINC000523863446    0.1200
     57 H57        -3.1704   -1.7123   47.8555 H       1  ZINC000523863446    0.1200
     58 H58        -2.8619    0.7295   47.7772 H       1  ZINC000523863446    0.1200
     59 H59        -0.4820    1.8488   55.8203 H       1  ZINC000523863446    0.1700
     60 H60         1.9701    2.0070   56.7448 H       1  ZINC000523863446    0.1500
     61 H61         3.3225    3.7086   55.1987 H       1  ZINC000523863446    0.1800
@<TRIPOS>BOND
     1     1     2    1
     2     1    32    1
     3     1    33    1
     4     1    34    1
     5     2     3    1
     6     2     4    1
     7     2    27    1
     8     4     5    2
     9     4     6   am
    10     6     7    1
    11     6     8    1
    12     7    35    1
    13     7    36    1
    14     7    37    1
    15     8     9    1
    16     8    38    1
    17     8    39    1
    18     9    10    2
    19     9    11   am
    20    11    12    1
    21    11    40    1
    22    12    13    1
    23    12    14    1
    24    12    21    1
    25    14    15    1
    26    14    41    1
    27    14    42    1
    28    15    20    1
    29    15    16    1
    30    15    43    1
    31    16    17    1
    32    16    44    1
    33    16    45    1
    34    17    18    1
    35    17    46    1
    36    17    47    1
    37    18    19    1
    38    18    48    1
    39    18    49    1
    40    19    20    1
    41    19    50    1
    42    19    51    1
    43    20    52    1
    44    20    53    1
    45    21    26   ar
    46    21    22   ar
    47    22    23   ar
    48    22    54    1
    49    23    24   ar
    50    23    55    1
    51    24    25   ar
    52    24    56    1
    53    25    26   ar
    54    25    57    1
    55    26    58    1
    56    27    31    1
    57    27    28    1
    58    28    29    2
    59    28    59    1
    60    29    30    1
    61    29    60    1
    62    30    31    2
    63    30    61    1
@<TRIPOS>SUBSTRUCTURE
     1 ZINC000523863446        1 TEMP              0 ****  ****    0 ROOT


##########                                Name:    ZINC000465392830
##########                DOCK_Rotatable_Bonds:                   8
##########                         Heavy_Atoms:                  29
##########                    Molecular_Weight:             419.588
##########                DOCK_Rotatable_Bonds:                   8
##########                       Formal_Charge:           0.0199996
##########                     HBond_Acceptors:                   7
##########                        HBond_Donors:                   0
##########                         Heavy_Atoms:                  29
##########                          Grid_Score:          -34.521034
##########                     Grid_vdw_energy:          -32.758133
##########                      Grid_es_energy:           -1.762901
##########           Internal_energy_repulsive:           56.709240

@<TRIPOS>MOLECULE
ZINC000465392830
 62 64 1 0 0
SMALL
USER_CHARGES


@<TRIPOS>ATOM
      1 C1         -8.7820    2.3978   58.9096 C.3     1  ZINC000465392830    0.0400
      2 O2         -9.1578    1.5647   60.0379 O.3     1  ZINC000465392830   -0.3600
      3 C3         -8.4549    0.4363   60.2231 C.2     1  ZINC000465392830    0.4600
      4 O4         -7.5560    0.1535   59.4668 O.2     1  ZINC000465392830   -0.4900
      5 C5         -8.7869   -0.4778   61.3743 C.3     1  ZINC000465392830    0.1500
      6 H6         -8.5274   -1.5051   61.1184 H       1  ZINC000465392830    0.1100
      7 C7         -8.0111   -0.0387   62.6339 C.3     1  ZINC000465392830   -0.1100
      8 C8         -9.0412   -0.2631   63.7723 C.3     1  ZINC000465392830   -0.0900
      9 H9         -9.0500   -1.3054   64.0913 H       1  ZINC000465392830    0.1000
     10 C10        -8.7630    0.6669   64.9549 C.3     1  ZINC000465392830   -0.0800
     11 C11        -7.3605    0.3917   65.5011 C.3     1  ZINC000465392830   -0.1200
     12 C12        -7.0822    1.3216   66.6837 C.3     1  ZINC000465392830   -0.1200
     13 C13        -7.1726    2.7771   66.2204 C.3     1  ZINC000465392830   -0.1200
     14 C14        -8.5750    3.0522   65.6742 C.3     1  ZINC000465392830   -0.1200
     15 C15        -8.8533    2.1222   64.4916 C.3     1  ZINC000465392830   -0.1200
     16 C16       -10.3690    0.1136   63.0691 C.3     1  ZINC000465392830    0.1000
     17 N17       -10.2207   -0.3873   61.6870 N.am    1  ZINC000465392830   -0.6100
     18 C18       -11.2313   -0.7042   60.8536 C.2     1  ZINC000465392830    0.5400
     19 O19       -12.3807   -0.5887   61.2228 O.2     1  ZINC000465392830   -0.5300
     20 C20       -10.9330   -1.2018   59.4627 C.3     1  ZINC000465392830   -0.1300
     21 C21       -12.1354   -0.9321   58.5557 C.3     1  ZINC000465392830   -0.0600
     22 C22       -11.8336   -1.4213   57.1627 C.ar    1  ZINC000465392830   -0.2000
     23 C23       -12.1673   -2.7104   56.7772 C.ar    1  ZINC000465392830    0.2000
     24 C24       -12.8402   -3.6465   57.7477 C.3     1  ZINC000465392830   -0.1100
     25 N25       -11.8885   -3.1086   55.5472 N.ar    1  ZINC000465392830   -0.5000
     26 C26       -11.2971   -2.2907   54.6879 C.ar    1  ZINC000465392830    0.3000
     27 S27       -10.9442   -2.8628   53.0592 S.3     1  ZINC000465392830    0.0000
     28 C28       -10.5813   -1.2877   52.2445 C.3     1  ZINC000465392830   -0.1400
     29 N29       -10.9656   -1.0523   55.0249 N.ar    1  ZINC000465392830   -0.5300
     30 C30       -11.2213   -0.5902   56.2375 C.ar    1  ZINC000465392830    0.2000
     31 C31       -10.8410    0.8189   56.6125 C.3     1  ZINC000465392830   -0.1100
     32 H32        -7.7447    2.7139   59.0208 H       1  ZINC000465392830    0.0600
     33 H33        -8.8916    1.8295   57.9859 H       1  ZINC000465392830    0.0600
     34 H34        -9.4275    3.2755   58.8750 H       1  ZINC000465392830    0.1000
     35 H35        -7.1305   -0.6637   62.7819 H       1  ZINC000465392830    0.1000
     36 H36        -7.7323    1.0130   62.5680 H       1  ZINC000465392830    0.0800
     37 H37        -9.4995    0.4886   65.7384 H       1  ZINC000465392830    0.0800
     38 H38        -7.2961   -0.6451   65.8312 H       1  ZINC000465392830    0.0600
     39 H39        -6.6240    0.5700   64.7176 H       1  ZINC000465392830    0.0700
     40 H40        -7.8188    1.1434   67.4673 H       1  ZINC000465392830    0.0600
     41 H41        -6.0831    1.1256   67.0729 H       1  ZINC000465392830    0.0600
     42 H42        -6.9744    3.4395   67.0630 H       1  ZINC000465392830    0.0600
     43 H43        -6.4361    2.9553   65.4369 H       1  ZINC000465392830    0.0600
     44 H44        -9.3116    2.8739   66.4577 H       1  ZINC000465392830    0.0600
     45 H45        -8.6395    4.0890   65.3441 H       1  ZINC000465392830    0.0600
     46 H46        -8.1168    2.3005   63.7080 H       1  ZINC000465392830    0.0700
     47 H47        -9.8525    2.3183   64.1024 H       1  ZINC000465392830    0.0600
     48 H48       -11.2103   -0.3754   63.5600 H       1  ZINC000465392830    0.0900
     49 H49       -10.5048    1.1951   63.0692 H       1  ZINC000465392830    0.0800
     50 H50       -10.0585   -0.6824   59.0708 H       1  ZINC000465392830    0.1000
     51 H51       -10.7352   -2.2732   59.4947 H       1  ZINC000465392830    0.1000
     52 H52       -13.0083   -1.4568   58.9440 H       1  ZINC000465392830    0.0900
     53 H53       -12.3373    0.1387   58.5290 H       1  ZINC000465392830    0.0900
     54 H54       -13.9217   -3.5395   57.6652 H       1  ZINC000465392830    0.0900
     55 H55       -12.5580   -4.6738   57.5167 H       1  ZINC000465392830    0.0900
     56 H56       -12.5274   -3.4034   58.7632 H       1  ZINC000465392830    0.0900
     57 H57       -11.4540   -0.6373   52.3062 H       1  ZINC000465392830    0.0900
     58 H58        -9.7360   -0.8092   52.7389 H       1  ZINC000465392830    0.0900
     59 H59       -10.3358   -1.4681   51.1980 H       1  ZINC000465392830    0.1100
     60 H60       -11.6672    1.4916   56.3825 H       1  ZINC000465392830    0.0900
     61 H61       -10.6217    0.8644   57.6792 H       1  ZINC000465392830    0.0900
     62 H62        -9.9591    1.1200   56.0471 H       1  ZINC000465392830    0.0800
@<TRIPOS>BOND
     1     1     2    1
     2     1    32    1
     3     1    33    1
     4     1    34    1
     5     2     3    1
     6     3     4    2
     7     3     5    1
     8     5     6    1
     9     5    17    1
    10     5     7    1
    11     7     8    1
    12     7    35    1
    13     7    36    1
    14     8     9    1
    15     8    10    1
    16     8    16    1
    17    10    15    1
    18    10    11    1
    19    10    37    1
    20    11    12    1
    21    11    38    1
    22    11    39    1
    23    12    13    1
    24    12    40    1
    25    12    41    1
    26    13    14    1
    27    13    42    1
    28    13    43    1
    29    14    15    1
    30    14    44    1
    31    14    45    1
    32    15    46    1
    33    15    47    1
    34    16    17    1
    35    16    48    1
    36    16    49    1
    37    17    18   am
    38    18    19    2
    39    18    20    1
    40    20    21    1
    41    20    50    1
    42    20    51    1
    43    21    22    1
    44    21    52    1
    45    21    53    1
    46    22    30   ar
    47    22    23   ar
    48    23    24    1
    49    23    25   ar
    50    24    54    1
    51    24    55    1
    52    24    56    1
    53    25    26   ar
    54    26    27    1
    55    26    29   ar
    56    27    28    1
    57    28    57    1
    58    28    58    1
    59    28    59    1
    60    29    30   ar
    61    30    31    1
    62    31    60    1
    63    31    61    1
    64    31    62    1
@<TRIPOS>SUBSTRUCTURE
     1 ZINC000465392830        1 TEMP              0 ****  ****    0 ROOT


##########                                Name:    ZINC000471198073
##########                DOCK_Rotatable_Bonds:                  12
##########                         Heavy_Atoms:                  30
##########                    Molecular_Weight:             409.528
##########                DOCK_Rotatable_Bonds:                  12
##########                       Formal_Charge:          -0.0399998
##########                     HBond_Acceptors:                   6
##########                        HBond_Donors:                   3
##########                         Heavy_Atoms:                  30
##########                          Grid_Score:          -34.435196
##########                     Grid_vdw_energy:          -34.132587
##########                      Grid_es_energy:           -0.302609
##########           Internal_energy_repulsive:           26.154112

@<TRIPOS>MOLECULE
ZINC000471198073
 61 62 1 0 0
SMALL
USER_CHARGES


@<TRIPOS>ATOM
      1 C1         -1.8718   -1.5806   47.9461 C.3     1  ZINC000471198073   -0.1400
      2 C2         -1.2278   -0.3410   47.3217 C.3     1  ZINC000471198073   -0.1100
      3 C3         -2.0664    0.1234   46.1292 C.3     1  ZINC000471198073   -0.1500
      4 C4         -1.1601    0.7607   48.3476 C.2     1  ZINC000471198073    0.5200
      5 O5         -0.1685    0.8900   49.0340 O.2     1  ZINC000471198073   -0.5200
      6 N6         -2.2012    1.6024   48.5024 N.am    1  ZINC000471198073   -0.6700
      7 C7         -2.1383    2.6254   49.4550 C.ar    1  ZINC000471198073    0.1600
      8 C8         -1.0776    3.5222   49.4431 C.ar    1  ZINC000471198073   -0.1500
      9 C9         -1.0146    4.5331   50.3832 C.ar    1  ZINC000471198073   -0.0800
     10 C10        -2.0056    4.6555   51.3376 C.ar    1  ZINC000471198073   -0.1300
     11 C11        -3.0695    3.7611   51.3554 C.ar    1  ZINC000471198073    0.1500
     12 N12        -4.0715    3.8851   52.3214 N.am    1  ZINC000471198073   -0.6400
     13 C13        -5.1633    4.6333   52.0674 C.2     1  ZINC000471198073    0.5100
     14 O14        -5.2764    5.1993   50.9997 O.2     1  ZINC000471198073   -0.5000
     15 C15        -6.2344    4.7658   53.0999 C.2     1  ZINC000471198073    0.5100
     16 O16        -6.9810    5.7224   53.0805 O.2     1  ZINC000471198073   -0.5100
     17 N17        -6.3716    3.8231   54.0533 N.am    1  ZINC000471198073   -0.7000
     18 C18        -7.4210    3.9538   55.0671 C.3     1  ZINC000471198073    0.1200
     19 C19        -7.8960    2.5629   55.4919 C.3     1  ZINC000471198073   -0.0900
     20 H20        -7.4743    1.8144   54.8211 H       1  ZINC000471198073    0.0800
     21 C21        -7.4356    2.2819   56.9237 C.3     1  ZINC000471198073   -0.0800
     22 C22        -5.9876    2.6724   57.0714 C.ar    1  ZINC000471198073   -0.0800
     23 C23        -5.6534    3.8788   57.6577 C.ar    1  ZINC000471198073   -0.1200
     24 C24        -4.3252    4.2370   57.7932 C.ar    1  ZINC000471198073   -0.1200
     25 C25        -3.3311    3.3886   57.3428 C.ar    1  ZINC000471198073   -0.1200
     26 C26        -3.6652    2.1817   56.7573 C.ar    1  ZINC000471198073   -0.1200
     27 C27        -4.9933    1.8216   56.6258 C.ar    1  ZINC000471198073   -0.1200
     28 C28        -9.4234    2.5036   55.4265 C.3     1  ZINC000471198073   -0.1000
     29 C29        -9.8752    2.5944   53.9675 C.3     1  ZINC000471198073   -0.1600
     30 C30        -9.9090    1.1840   56.0295 C.3     1  ZINC000471198073   -0.1700
     31 C31        -3.1383    2.7484   50.4090 C.ar    1  ZINC000471198073   -0.1400
     32 H32        -1.9208   -2.3774   47.2041 H       1  ZINC000471198073    0.0700
     33 H33        -1.2743   -1.9115   48.7956 H       1  ZINC000471198073    0.0600
     34 H34        -2.8789   -1.3358   48.2835 H       1  ZINC000471198073    0.0600
     35 H35        -0.2207   -0.5858   46.9843 H       1  ZINC000471198073    0.1000
     36 H36        -3.0736    0.3681   46.4666 H       1  ZINC000471198073    0.0600
     37 H37        -1.6077    1.0065   45.6844 H       1  ZINC000471198073    0.0600
     38 H38        -2.1155   -0.6735   45.3871 H       1  ZINC000471198073    0.0700
     39 H39        -2.9942    1.4989   47.9536 H       1  ZINC000471198073    0.4100
     40 H40        -0.3009    3.4291   48.6985 H       1  ZINC000471198073    0.1300
     41 H41        -0.1887    5.2288   50.3719 H       1  ZINC000471198073    0.1300
     42 H42        -1.9535    5.4466   52.0710 H       1  ZINC000471198073    0.1400
     43 H43        -3.9811    3.4327   53.1747 H       1  ZINC000471198073    0.4200
     44 H44        -5.7756    3.0579   54.0681 H       1  ZINC000471198073    0.4200
     45 H45        -7.0249    4.4829   55.9339 H       1  ZINC000471198073    0.0700
     46 H46        -8.2595    4.5131   54.6521 H       1  ZINC000471198073    0.0800
     47 H47        -8.0411    2.8615   57.6204 H       1  ZINC000471198073    0.0800
     48 H48        -7.5494    1.2196   57.1400 H       1  ZINC000471198073    0.0800
     49 H49        -6.4301    4.5417   58.0096 H       1  ZINC000471198073    0.1200
     50 H50        -4.0642    5.1799   58.2505 H       1  ZINC000471198073    0.1200
     51 H51        -2.2934    3.6688   57.4480 H       1  ZINC000471198073    0.1200
     52 H52        -2.8886    1.5190   56.4052 H       1  ZINC000471198073    0.1200
     53 H53        -5.2545    0.8787   56.1684 H       1  ZINC000471198073    0.1200
     54 H54        -9.8439    3.3369   55.9896 H       1  ZINC000471198073    0.0800
     55 H55        -9.5372    1.7105   53.4267 H       1  ZINC000471198073    0.0600
     56 H56       -10.9630    2.6513   53.9269 H       1  ZINC000471198073    0.0600
     57 H57        -9.4475    3.4862   53.5095 H       1  ZINC000471198073    0.0600
     58 H58        -9.4820    1.0604   57.0248 H       1  ZINC000471198073    0.0600
     59 H59       -10.9967    1.1950   56.0997 H       1  ZINC000471198073    0.0600
     60 H60        -9.5943    0.3565   55.3938 H       1  ZINC000471198073    0.0700
     61 H61        -3.9639    2.0521   50.4206 H       1  ZINC000471198073    0.1400
@<TRIPOS>BOND
     1     1     2    1
     2     1    32    1
     3     1    33    1
     4     1    34    1
     5     2     3    1
     6     2     4    1
     7     2    35    1
     8     3    36    1
     9     3    37    1
    10     3    38    1
    11     4     5    2
    12     4     6   am
    13     6     7    1
    14     6    39    1
    15     7    31   ar
    16     7     8   ar
    17     8     9   ar
    18     8    40    1
    19     9    10   ar
    20     9    41    1
    21    10    11   ar
    22    10    42    1
    23    11    12    1
    24    11    31   ar
    25    12    13   am
    26    12    43    1
    27    13    14    2
    28    13    15    1
    29    15    16    2
    30    15    17   am
    31    17    18    1
    32    17    44    1
    33    18    19    1
    34    18    45    1
    35    18    46    1
    36    19    20    1
    37    19    21    1
    38    19    28    1
    39    21    22    1
    40    21    47    1
    41    21    48    1
    42    22    27   ar
    43    22    23   ar
    44    23    24   ar
    45    23    49    1
    46    24    25   ar
    47    24    50    1
    48    25    26   ar
    49    25    51    1
    50    26    27   ar
    51    26    52    1
    52    27    53    1
    53    28    29    1
    54    28    30    1
    55    28    54    1
    56    29    55    1
    57    29    56    1
    58    29    57    1
    59    30    58    1
    60    30    59    1
    61    30    60    1
    62    31    61    1
@<TRIPOS>SUBSTRUCTURE
     1 ZINC000471198073        1 TEMP              0 ****  ****    0 ROOT


##########                                Name:    ZINC001362587626
##########                DOCK_Rotatable_Bonds:                   9
##########                         Heavy_Atoms:                  25
##########                    Molecular_Weight:             346.346
##########                DOCK_Rotatable_Bonds:                   9
##########                       Formal_Charge:        -4.02331e-07
##########                     HBond_Acceptors:                  10
##########                        HBond_Donors:                   2
##########                         Heavy_Atoms:                  25
##########                          Grid_Score:          -34.425457
##########                     Grid_vdw_energy:          -30.925274
##########                      Grid_es_energy:           -3.500184
##########           Internal_energy_repulsive:            5.234162

@<TRIPOS>MOLECULE
ZINC001362587626
 43 45 1 0 0
SMALL
USER_CHARGES


@<TRIPOS>ATOM
      1 C1         -1.9868    5.5705   53.8050 C.3     1  ZINC001362587626   -0.1600
      2 C2         -2.9979    4.4465   53.5704 C.3     1  ZINC001362587626    0.1300
      3 H3         -3.9772    4.8767   53.3606 H       1  ZINC001362587626    0.1200
      4 N4         -3.0801    3.6058   54.7674 N.am    1  ZINC001362587626   -0.7100
      5 C5         -4.2599    3.0654   55.1315 C.2     1  ZINC001362587626    0.5100
      6 O6         -5.2531    3.2737   54.4674 O.2     1  ZINC001362587626   -0.5000
      7 C7         -4.3449    2.2020   56.3639 C.3     1  ZINC001362587626    0.1000
      8 N8         -5.6870    2.3067   56.9417 N.pl3   1  ZINC001362587626   -0.3100
      9 C9         -6.0956    3.2056   57.8565 C.2     1  ZINC001362587626    0.1600
     10 N10        -7.3582    2.9495   58.0978 N.2     1  ZINC001362587626   -0.3000
     11 N11        -7.7069    1.9458   57.3693 N.2     1  ZINC001362587626   -0.0700
     12 N12        -6.7009    1.5584   56.6653 N.2     1  ZINC001362587626   -0.0700
     13 C13        -2.5553    3.6094   52.3981 C.2     1  ZINC001362587626    0.5100
     14 O14        -1.7212    2.7423   52.5526 O.2     1  ZINC001362587626   -0.5200
     15 N15        -3.0863    3.8241   51.1780 N.am    1  ZINC001362587626   -0.6600
     16 C16        -2.6747    3.0458   50.0882 C.ar    1  ZINC001362587626    0.1000
     17 C17        -3.2223    1.7856   49.8885 C.ar    1  ZINC001362587626   -0.1000
     18 C18        -2.8167    1.0192   48.8139 C.ar    1  ZINC001362587626   -0.1900
     19 C19        -1.8618    1.5078   47.9342 C.ar    1  ZINC001362587626    0.1200
     20 O20        -1.4624    0.7524   46.8765 O.3     1  ZINC001362587626   -0.2800
     21 C21        -1.7108    1.2801   45.5719 C.3     1  ZINC001362587626    0.0100
     22 C22        -0.4388    1.7376   44.8335 C.3     1  ZINC001362587626    0.0200
     23 O23        -0.4068    0.4005   44.2951 O.3     1  ZINC001362587626   -0.3700
     24 C24        -1.8234    0.2030   44.4764 C.3     1  ZINC001362587626    0.0400
     25 C25        -1.3145    2.7669   48.1328 C.ar    1  ZINC001362587626   -0.1300
     26 C26        -1.7232    3.5366   49.2041 C.ar    1  ZINC001362587626   -0.0800
     27 H27        -1.0075    5.1403   54.0150 H       1  ZINC001362587626    0.0700
     28 H28        -1.9256    6.1960   52.9145 H       1  ZINC001362587626    0.0800
     29 H29        -2.3069    6.1760   54.6530 H       1  ZINC001362587626    0.0800
     30 H30        -2.2856    3.4382   55.2978 H       1  ZINC001362587626    0.4100
     31 H31        -4.1448    1.1648   56.0953 H       1  ZINC001362587626    0.1500
     32 H32        -3.6079    2.5372   57.0937 H       1  ZINC001362587626    0.1400
     33 H33        -5.4988    3.9861   58.3051 H       1  ZINC001362587626    0.2400
     34 H34        -3.7533    4.5173   51.0545 H       1  ZINC001362587626    0.4100
     35 H35        -3.9652    1.4047   50.5737 H       1  ZINC001362587626    0.1300
     36 H36        -3.2425    0.0389   48.6585 H       1  ZINC001362587626    0.1400
     37 H37        -2.5189    2.0113   45.5550 H       1  ZINC001362587626    0.0900
     38 H38        -0.6169    2.5101   44.0854 H       1  ZINC001362587626    0.1000
     39 H39         0.3967    1.9667   45.4949 H       1  ZINC001362587626    0.1000
     40 H40        -2.0861   -0.7849   44.8546 H       1  ZINC001362587626    0.1000
     41 H41        -2.4243    0.5069   43.6193 H       1  ZINC001362587626    0.1000
     42 H42        -0.5712    3.1468   47.4475 H       1  ZINC001362587626    0.1400
     43 H43        -1.2974    4.5171   49.3583 H       1  ZINC001362587626    0.1500
@<TRIPOS>BOND
     1     1     2    1
     2     1    27    1
     3     1    28    1
     4     1    29    1
     5     2     3    1
     6     2     4    1
     7     2    13    1
     8     4     5   am
     9     4    30    1
    10     5     6    2
    11     5     7    1
    12     7     8    1
    13     7    31    1
    14     7    32    1
    15     8    12    1
    16     8     9    1
    17     9    10    2
    18     9    33    1
    19    10    11    1
    20    11    12    2
    21    13    14    2
    22    13    15   am
    23    15    16    1
    24    15    34    1
    25    16    26   ar
    26    16    17   ar
    27    17    18   ar
    28    17    35    1
    29    18    19   ar
    30    18    36    1
    31    19    20    1
    32    19    25   ar
    33    20    21    1
    34    21    24    1
    35    21    22    1
    36    21    37    1
    37    22    23    1
    38    22    38    1
    39    22    39    1
    40    23    24    1
    41    24    40    1
    42    24    41    1
    43    25    26   ar
    44    25    42    1
    45    26    43    1
@<TRIPOS>SUBSTRUCTURE
     1 ZINC001362587626        1 TEMP              0 ****  ****    0 ROOT


##########                                Name:    ZINC000428748914
##########                DOCK_Rotatable_Bonds:                  11
##########                         Heavy_Atoms:                  30
##########                    Molecular_Weight:             413.492
##########                DOCK_Rotatable_Bonds:                  11
##########                       Formal_Charge:           0.0199993
##########                     HBond_Acceptors:                   7
##########                        HBond_Donors:                   3
##########                         Heavy_Atoms:                  30
##########                          Grid_Score:          -34.411575
##########                     Grid_vdw_energy:          -31.491076
##########                      Grid_es_energy:           -2.920498
##########           Internal_energy_repulsive:           15.274214

@<TRIPOS>MOLECULE
ZINC000428748914
 58 61 1 0 0
SMALL
USER_CHARGES


@<TRIPOS>ATOM
      1 O1         -3.0252    6.2503   51.4206 O.2     1  ZINC000428748914   -0.5900
      2 C2         -3.6909    5.6571   50.5938 C.2     1  ZINC000428748914    0.7000
      3 N3         -5.0260    5.5576   50.7489 N.am    1  ZINC000428748914   -0.7400
      4 C4         -5.6745    6.1591   51.9169 C.3     1  ZINC000428748914    0.1900
      5 C5         -6.6931    5.1993   52.4757 C.ar    1  ZINC000428748914   -0.2000
      6 C6         -6.2863    4.0927   53.2079 C.ar    1  ZINC000428748914   -0.0200
      7 C7         -7.2547    3.2365   53.7031 C.ar    1  ZINC000428748914   -0.1900
      8 C8         -8.5925    3.5119   53.4521 C.ar    1  ZINC000428748914    0.3300
      9 O9         -9.5513    2.6807   53.9323 O.3     1  ZINC000428748914   -0.3000
     10 C10        -9.3839    1.2839   53.6814 C.3     1  ZINC000428748914    0.0800
     11 C11       -10.6916    0.5159   53.9966 C.3     1  ZINC000428748914   -0.1400
     12 C12       -10.5524   -0.7640   53.1355 C.3     1  ZINC000428748914   -0.1200
     13 C13        -9.8918   -0.2723   51.8310 C.3     1  ZINC000428748914   -0.1200
     14 C14        -9.1489    1.0297   52.1781 C.3     1  ZINC000428748914   -0.1200
     15 N15        -8.9410    4.5773   52.7496 N.ar    1  ZINC000428748914   -0.5400
     16 C16        -8.0415    5.4146   52.2696 C.ar    1  ZINC000428748914    0.1600
     17 N17        -3.0942    5.1039   49.5194 N.am    1  ZINC000428748914   -0.7400
     18 C18        -1.6429    5.2120   49.3507 C.3     1  ZINC000428748914    0.1800
     19 C19        -1.0147    3.8194   49.4337 C.3     1  ZINC000428748914   -0.1300
     20 C20        -1.4018    2.9930   50.6618 C.3     1  ZINC000428748914    0.1100
     21 O21        -0.7779    3.5447   51.8231 O.3     1  ZINC000428748914   -0.5700
     22 C22         0.4042    3.6508   48.8868 C.3     1  ZINC000428748914   -0.1400
     23 C23        -0.7853    3.0685   48.1207 C.3     1  ZINC000428748914   -0.1000
     24 H24        -1.0819    3.5666   47.1976 H       1  ZINC000428748914    0.1200
     25 C25        -0.9569    1.5713   48.1355 C.ar    1  ZINC000428748914   -0.0700
     26 C26         0.1128    0.7504   47.8309 C.ar    1  ZINC000428748914   -0.0900
     27 C27        -0.0434   -0.6226   47.8442 C.ar    1  ZINC000428748914   -0.1500
     28 C28        -1.2718   -1.1759   48.1633 C.ar    1  ZINC000428748914    0.1000
     29 F29        -1.4256   -2.5181   48.1771 F       1  ZINC000428748914   -0.1400
     30 C30        -2.3424   -0.3528   48.4688 C.ar    1  ZINC000428748914   -0.1500
     31 C31        -2.1825    1.0199   48.4594 C.ar    1  ZINC000428748914   -0.0800
     32 H32        -5.5575    5.0879   50.0874 H       1  ZINC000428748914    0.4000
     33 H33        -4.9244    6.3762   52.6774 H       1  ZINC000428748914    0.0800
     34 H34        -6.1703    7.0837   51.6212 H       1  ZINC000428748914    0.0800
     35 H35        -5.2382    3.9037   53.3869 H       1  ZINC000428748914    0.1400
     36 H36        -6.9736    2.3656   54.2766 H       1  ZINC000428748914    0.1400
     37 H37        -8.5556    0.8881   54.2693 H       1  ZINC000428748914    0.1000
     38 H38       -10.7465    0.2648   55.0558 H       1  ZINC000428748914    0.0700
     39 H39       -11.5629    1.0947   53.6901 H       1  ZINC000428748914    0.0800
     40 H40        -9.9140   -1.4925   53.6353 H       1  ZINC000428748914    0.0700
     41 H41       -11.5328   -1.1930   52.9285 H       1  ZINC000428748914    0.0700
     42 H42        -9.1865   -1.0185   51.4653 H       1  ZINC000428748914    0.0700
     43 H43       -10.6543   -0.0775   51.0768 H       1  ZINC000428748914    0.0700
     44 H44        -9.5508    1.8565   51.5924 H       1  ZINC000428748914    0.0800
     45 H45        -8.0830    0.9153   51.9809 H       1  ZINC000428748914    0.0700
     46 H46        -8.3633    6.2743   51.7007 H       1  ZINC000428748914    0.1600
     47 H47        -3.6257    4.6341   48.8578 H       1  ZINC000428748914    0.3900
     48 H48        -1.4220    5.6530   48.3787 H       1  ZINC000428748914    0.0700
     49 H49        -1.2318    5.8437   50.1382 H       1  ZINC000428748914    0.0900
     50 H50        -2.4844    3.0131   50.7868 H       1  ZINC000428748914    0.0500
     51 H51        -1.0708    1.9635   50.5260 H       1  ZINC000428748914    0.0600
     52 H52        -0.9976    4.4724   51.9844 H       1  ZINC000428748914    0.3800
     53 H53         0.8901    4.5320   48.4678 H       1  ZINC000428748914    0.1100
     54 H54         1.0624    2.9511   49.4019 H       1  ZINC000428748914    0.1100
     55 H55         1.0709    1.1823   47.5820 H       1  ZINC000428748914    0.1400
     56 H56         0.7922   -1.2637   47.6055 H       1  ZINC000428748914    0.1400
     57 H57        -3.3012   -0.7833   48.7175 H       1  ZINC000428748914    0.1400
     58 H58        -3.0174    1.6621   48.6980 H       1  ZINC000428748914    0.1300
@<TRIPOS>BOND
     1     1     2    2
     2     2     3   am
     3     2    17   am
     4     3     4    1
     5     3    32    1
     6     4     5    1
     7     4    33    1
     8     4    34    1
     9     5    16   ar
    10     5     6   ar
    11     6     7   ar
    12     6    35    1
    13     7     8   ar
    14     7    36    1
    15     8     9    1
    16     8    15   ar
    17     9    10    1
    18    10    14    1
    19    10    11    1
    20    10    37    1
    21    11    12    1
    22    11    38    1
    23    11    39    1
    24    12    13    1
    25    12    40    1
    26    12    41    1
    27    13    14    1
    28    13    42    1
    29    13    43    1
    30    14    44    1
    31    14    45    1
    32    15    16   ar
    33    16    46    1
    34    17    18    1
    35    17    47    1
    36    18    19    1
    37    18    48    1
    38    18    49    1
    39    19    23    1
    40    19    20    1
    41    19    22    1
    42    20    21    1
    43    20    50    1
    44    20    51    1
    45    21    52    1
    46    22    23    1
    47    22    53    1
    48    22    54    1
    49    23    24    1
    50    23    25    1
    51    25    31   ar
    52    25    26   ar
    53    26    27   ar
    54    26    55    1
    55    27    28   ar
    56    27    56    1
    57    28    29    1
    58    28    30   ar
    59    30    31   ar
    60    30    57    1
    61    31    58    1
@<TRIPOS>SUBSTRUCTURE
     1 ZINC000428748914        1 TEMP              0 ****  ****    0 ROOT


##########                                Name:    ZINC000740930783
##########                DOCK_Rotatable_Bonds:                  11
##########                         Heavy_Atoms:                  27
##########                    Molecular_Weight:             413.257
##########                DOCK_Rotatable_Bonds:                  11
##########                       Formal_Charge:          -0.0100004
##########                     HBond_Acceptors:                   9
##########                        HBond_Donors:                   4
##########                         Heavy_Atoms:                  27
##########                          Grid_Score:          -34.396305
##########                     Grid_vdw_energy:          -31.671522
##########                      Grid_es_energy:           -2.724784
##########           Internal_energy_repulsive:           12.476376

@<TRIPOS>MOLECULE
ZINC000740930783
 45 46 1 0 0
SMALL
USER_CHARGES


@<TRIPOS>ATOM
      1 C1         -2.3463   -0.9368   47.4363 C.3     1  ZINC000740930783    0.0200
      2 O2         -2.9313    0.3325   47.1378 O.3     1  ZINC000740930783   -0.3000
      3 C3         -2.4118    1.4166   47.7736 C.ar    1  ZINC000740930783    0.1200
      4 C4         -2.7516    1.6752   49.0873 C.ar    1  ZINC000740930783   -0.1400
      5 C5         -2.2158    2.7898   49.7383 C.ar    1  ZINC000740930783   -0.0800
      6 C6         -2.5757    3.0700   51.1423 C.2     1  ZINC000740930783    0.5600
      7 O7         -1.7797    2.8383   52.0317 O.2     1  ZINC000740930783   -0.5300
      8 N8         -3.7865    3.5827   51.4381 N.am    1  ZINC000740930783   -0.7200
      9 C9         -4.1442    3.8593   52.8316 C.3     1  ZINC000740930783    0.0900
     10 C10        -5.5819    3.4036   53.0891 C.3     1  ZINC000740930783    0.1400
     11 H11        -5.7376    2.4220   52.6418 H       1  ZINC000740930783    0.1200
     12 O12        -6.4902    4.3414   52.5079 O.3     1  ZINC000740930783   -0.5500
     13 C13        -5.8251    3.3231   54.5742 C.ar    1  ZINC000740930783   -0.1100
     14 C14        -4.9645    3.9563   55.4507 C.ar    1  ZINC000740930783   -0.1000
     15 C15        -5.1875    3.8826   56.8132 C.ar    1  ZINC000740930783   -0.1100
     16 C16        -6.2707    3.1750   57.2995 C.ar    1  ZINC000740930783   -0.1000
     17 C17        -7.1322    2.5411   56.4237 C.ar    1  ZINC000740930783   -0.1100
     18 C18        -6.9131    2.6198   55.0601 C.ar    1  ZINC000740930783   -0.0300
     19 Cl19       -7.9945    1.8241   53.9596 Cl      1  ZINC000740930783   -0.0600
     20 C20        -1.3389    3.6378   49.0581 C.ar    1  ZINC000740930783   -0.1000
     21 C21        -1.0035    3.3741   47.7464 C.ar    1  ZINC000740930783   -0.0200
     22 Cl22        0.0870    4.4287   46.9024 Cl      1  ZINC000740930783   -0.0300
     23 C23        -1.5320    2.2635   47.1015 C.ar    1  ZINC000740930783    0.0900
     24 O24        -1.1989    2.0076   45.8098 O.3     1  ZINC000740930783   -0.2900
     25 C25        -0.0618    1.1715   45.5864 C.3     1  ZINC000740930783    0.0400
     26 C26         0.6524    1.6181   44.3367 C.2     1  ZINC000740930783    0.5200
     27 N27         0.2757    2.7526   43.7141 N.am    1  ZINC000740930783   -0.8500
     28 O28         1.5660    0.9566   43.8912 O.2     1  ZINC000740930783   -0.5100
     29 H29        -1.2890   -0.9208   47.1717 H       1  ZINC000740930783    0.0600
     30 H30        -2.4511   -1.1437   48.5014 H       1  ZINC000740930783    0.0600
     31 H31        -2.8525   -1.7139   46.8637 H       1  ZINC000740930783    0.1100
     32 H32        -3.4302    1.0177   49.6101 H       1  ZINC000740930783    0.1600
     33 H33        -4.4210    3.7687   50.7284 H       1  ZINC000740930783    0.4100
     34 H34        -3.4678    3.3194   53.4943 H       1  ZINC000740930783    0.0900
     35 H35        -4.0625    4.9293   53.0222 H       1  ZINC000740930783    0.0800
     36 H36        -7.4220    4.1111   52.6253 H       1  ZINC000740930783    0.3800
     37 H37        -4.1176    4.5087   55.0713 H       1  ZINC000740930783    0.1300
     38 H38        -4.5147    4.3775   57.4979 H       1  ZINC000740930783    0.1300
     39 H39        -6.4439    3.1170   58.3640 H       1  ZINC000740930783    0.1400
     40 H40        -7.9785    1.9884   56.8038 H       1  ZINC000740930783    0.1400
     41 H41        -0.9238    4.5000   49.5589 H       1  ZINC000740930783    0.1500
     42 H42         0.6154    1.2441   46.4374 H       1  ZINC000740930783    0.0900
     43 H43        -0.3881    0.1382   45.4688 H       1  ZINC000740930783    0.0900
     44 H44         0.7360    3.0407   42.9104 H       1  ZINC000740930783    0.4000
     45 H45        -0.4560    3.2810   44.0698 H       1  ZINC000740930783    0.4100
@<TRIPOS>BOND
     1     1     2    1
     2     1    29    1
     3     1    30    1
     4     1    31    1
     5     2     3    1
     6     3    23   ar
     7     3     4   ar
     8     4     5   ar
     9     4    32    1
    10     5     6    1
    11     5    20   ar
    12     6     7    2
    13     6     8   am
    14     8     9    1
    15     8    33    1
    16     9    10    1
    17     9    34    1
    18     9    35    1
    19    10    11    1
    20    10    12    1
    21    10    13    1
    22    12    36    1
    23    13    18   ar
    24    13    14   ar
    25    14    15   ar
    26    14    37    1
    27    15    16   ar
    28    15    38    1
    29    16    17   ar
    30    16    39    1
    31    17    18   ar
    32    17    40    1
    33    18    19    1
    34    20    21   ar
    35    20    41    1
    36    21    22    1
    37    21    23   ar
    38    23    24    1
    39    24    25    1
    40    25    26    1
    41    25    42    1
    42    25    43    1
    43    26    27   am
    44    26    28    2
    45    27    44    1
    46    27    45    1
@<TRIPOS>SUBSTRUCTURE
     1 ZINC000740930783        1 TEMP              0 ****  ****    0 ROOT


##########                                Name:    ZINC001347442583
##########                DOCK_Rotatable_Bonds:                   9
##########                         Heavy_Atoms:                  27
##########                    Molecular_Weight:             370.492
##########                DOCK_Rotatable_Bonds:                   9
##########                       Formal_Charge:          -0.0400009
##########                     HBond_Acceptors:                   5
##########                        HBond_Donors:                   1
##########                         Heavy_Atoms:                  27
##########                          Grid_Score:          -34.377090
##########                     Grid_vdw_energy:          -33.909935
##########                      Grid_es_energy:           -0.467156
##########           Internal_energy_repulsive:            9.935135

@<TRIPOS>MOLECULE
ZINC001347442583
 57 60 1 0 0
SMALL
USER_CHARGES


@<TRIPOS>ATOM
      1 O1         -0.1746    2.8031   49.7536 O.2     1  ZINC001347442583   -0.5400
      2 C2         -1.2246    2.3744   49.3239 C.2     1  ZINC001347442583    0.5400
      3 C3         -2.5292    2.9522   49.8086 C.3     1  ZINC001347442583   -0.1400
      4 C4         -2.3880    3.3728   51.2730 C.3     1  ZINC001347442583   -0.1000
      5 C5         -3.6932    4.0148   51.7473 C.3     1  ZINC001347442583   -0.1100
      6 C6         -3.4318    4.8197   53.0221 C.3     1  ZINC001347442583   -0.0800
      7 C7         -3.2424    3.8763   54.1819 C.ar    1  ZINC001347442583   -0.0800
      8 C8         -1.9746    3.4391   54.5173 C.ar    1  ZINC001347442583   -0.1200
      9 C9         -1.8010    2.5737   55.5812 C.ar    1  ZINC001347442583   -0.1200
     10 C10        -2.8950    2.1458   56.3099 C.ar    1  ZINC001347442583   -0.1300
     11 C11        -4.1626    2.5838   55.9751 C.ar    1  ZINC001347442583   -0.1200
     12 C12        -4.3358    3.4527   54.9138 C.ar    1  ZINC001347442583   -0.1200
     13 N13        -1.2245    1.3850   48.4086 N.am    1  ZINC001347442583   -0.6300
     14 C14        -2.3607    0.6851   47.7184 C.3     1  ZINC001347442583    0.1200
     15 H15        -3.3615    1.0162   47.9953 H       1  ZINC001347442583    0.1200
     16 C16        -2.0325   -0.8044   48.0386 C.3     1  ZINC001347442583   -0.1300
     17 C17        -0.4845   -0.8333   48.0700 C.3     1  ZINC001347442583   -0.1300
     18 C18        -0.0880    0.6471   47.7598 C.3     1  ZINC001347442583    0.1200
     19 H19         0.9122    0.9423   48.0764 H       1  ZINC001347442583    0.1200
     20 C20        -0.3982    0.8404   46.2448 C.3     1  ZINC001347442583    0.1300
     21 H21        -0.0077    0.0053   45.6632 H       1  ZINC001347442583    0.1100
     22 N22         0.1565    2.1075   45.7619 N.am    1  ZINC001347442583   -0.7200
     23 C23         0.5183    2.2360   44.4700 C.2     1  ZINC001347442583    0.5300
     24 O24         0.3831    1.3032   43.7068 O.2     1  ZINC001347442583   -0.5300
     25 C25         1.0906    3.5389   43.9739 C.3     1  ZINC001347442583   -0.1500
     26 H26         0.2949    4.2472   43.7433 H       1  ZINC001347442583    0.1100
     27 C27         2.0806    4.1377   45.0098 C.3     1  ZINC001347442583   -0.1400
     28 C28         3.0205    4.9494   44.0831 C.3     1  ZINC001347442583    0.0500
     29 O29         3.1411    4.1615   42.8882 O.3     1  ZINC001347442583   -0.3800
     30 C30         1.9949    3.3088   42.7440 C.3     1  ZINC001347442583    0.0700
     31 C31        -1.9740    0.8912   46.2228 C.3     1  ZINC001347442583   -0.1400
     32 H32        -2.7885    3.8216   49.2043 H       1  ZINC001347442583    0.0900
     33 H33        -3.3143    2.2013   49.7205 H       1  ZINC001347442583    0.0900
     34 H34        -2.1712    2.4962   51.8834 H       1  ZINC001347442583    0.0700
     35 H35        -1.5741    4.0917   51.3676 H       1  ZINC001347442583    0.0700
     36 H36        -4.0753    4.6776   50.9710 H       1  ZINC001347442583    0.0600
     37 H37        -4.4272    3.2358   51.9538 H       1  ZINC001347442583    0.0600
     38 H38        -2.5328    5.4223   52.8932 H       1  ZINC001347442583    0.0700
     39 H39        -4.2818    5.4727   53.2201 H       1  ZINC001347442583    0.0700
     40 H40        -1.1199    3.7732   53.9480 H       1  ZINC001347442583    0.1200
     41 H41        -0.8106    2.2314   55.8427 H       1  ZINC001347442583    0.1200
     42 H42        -2.7593    1.4692   57.1406 H       1  ZINC001347442583    0.1200
     43 H43        -5.0174    2.2494   56.5442 H       1  ZINC001347442583    0.1200
     44 H44        -5.3262    3.7949   54.6522 H       1  ZINC001347442583    0.1200
     45 H45        -2.4416   -1.0878   49.0083 H       1  ZINC001347442583    0.0700
     46 H46        -2.4129   -1.4586   47.2541 H       1  ZINC001347442583    0.0800
     47 H47        -0.1260   -1.1312   49.0554 H       1  ZINC001347442583    0.0800
     48 H48        -0.0973   -1.5019   47.3012 H       1  ZINC001347442583    0.0800
     49 H49         0.2634    2.8539   46.3722 H       1  ZINC001347442583    0.4000
     50 H50         1.5649    4.7898   45.7147 H       1  ZINC001347442583    0.0900
     51 H51         2.6264    3.3516   45.5316 H       1  ZINC001347442583    0.0900
     52 H52         2.5800    5.9197   43.8537 H       1  ZINC001347442583    0.0700
     53 H53         3.9961    5.0773   44.5520 H       1  ZINC001347442583    0.0900
     54 H54         2.3114    2.2663   42.7109 H       1  ZINC001347442583    0.0700
     55 H55         1.4578    3.5627   41.8301 H       1  ZINC001347442583    0.0800
     56 H56        -2.3763    0.0722   45.6265 H       1  ZINC001347442583    0.0900
     57 H57        -2.3219    1.8515   45.8425 H       1  ZINC001347442583    0.0800
@<TRIPOS>BOND
     1     1     2    2
     2     2     3    1
     3     2    13   am
     4     3     4    1
     5     3    32    1
     6     3    33    1
     7     4     5    1
     8     4    34    1
     9     4    35    1
    10     5     6    1
    11     5    36    1
    12     5    37    1
    13     6     7    1
    14     6    38    1
    15     6    39    1
    16     7    12   ar
    17     7     8   ar
    18     8     9   ar
    19     8    40    1
    20     9    10   ar
    21     9    41    1
    22    10    11   ar
    23    10    42    1
    24    11    12   ar
    25    11    43    1
    26    12    44    1
    27    13    18    1
    28    13    14    1
    29    14    15    1
    30    14    31    1
    31    14    16    1
    32    16    17    1
    33    16    45    1
    34    16    46    1
    35    17    18    1
    36    17    47    1
    37    17    48    1
    38    18    19    1
    39    18    20    1
    40    20    21    1
    41    20    22    1
    42    20    31    1
    43    22    23   am
    44    22    49    1
    45    23    24    2
    46    23    25    1
    47    25    26    1
    48    25    30    1
    49    25    27    1
    50    27    28    1
    51    27    50    1
    52    27    51    1
    53    28    29    1
    54    28    52    1
    55    28    53    1
    56    29    30    1
    57    30    54    1
    58    30    55    1
    59    31    56    1
    60    31    57    1
@<TRIPOS>SUBSTRUCTURE
     1 ZINC001347442583        1 TEMP              0 ****  ****    0 ROOT


##########                                Name:    ZINC000821177065
##########                DOCK_Rotatable_Bonds:                  10
##########                         Heavy_Atoms:                  25
##########                    Molecular_Weight:             341.413
##########                DOCK_Rotatable_Bonds:                  10
##########                       Formal_Charge:          0.00999917
##########                     HBond_Acceptors:                   7
##########                        HBond_Donors:                   3
##########                         Heavy_Atoms:                  25
##########                          Grid_Score:          -34.351589
##########                     Grid_vdw_energy:          -30.214741
##########                      Grid_es_energy:           -4.136847
##########           Internal_energy_repulsive:           17.875408

@<TRIPOS>MOLECULE
ZINC000821177065
 48 51 1 0 0
SMALL
USER_CHARGES


@<TRIPOS>ATOM
      1 O1         -1.1506    2.8841   52.5111 O.2     1  ZINC000821177065   -0.5600
      2 C2         -2.2749    3.3339   52.6215 C.2     1  ZINC000821177065    0.7100
      3 N3         -2.7281    3.7264   53.8286 N.am    1  ZINC000821177065   -0.7300
      4 C4         -1.8682    3.6057   55.0086 C.3     1  ZINC000821177065    0.1200
      5 C5         -2.7358    3.4174   56.2547 C.3     1  ZINC000821177065    0.1900
      6 O6         -3.4576    2.1885   56.1514 O.3     1  ZINC000821177065   -0.5400
      7 C7         -1.8433    3.3819   57.4969 C.3     1  ZINC000821177065   -0.1500
      8 C8         -0.3290    3.4086   57.2798 C.3     1  ZINC000821177065   -0.1600
      9 C9         -1.0449    4.6441   57.8294 C.3     1  ZINC000821177065   -0.1700
     10 C10        -3.7230    4.5808   56.3692 C.3     1  ZINC000821177065   -0.1800
     11 C11        -5.2074    4.2701   56.1675 C.3     1  ZINC000821177065   -0.1900
     12 C12        -4.6750    4.5842   57.5671 C.3     1  ZINC000821177065   -0.1700
     13 N13        -3.0659    3.4450   51.5361 N.am    1  ZINC000821177065   -0.6500
     14 C14        -2.5945    3.0366   50.2804 C.2     1  ZINC000821177065    0.3200
     15 N15        -2.9451    1.9444   49.6434 N.2     1  ZINC000821177065   -0.3200
     16 N16        -2.2507    1.9059   48.4276 N.pl3   1  ZINC000821177065   -0.3600
     17 C17        -2.3507    0.8544   47.4124 C.3     1  ZINC000821177065    0.1900
     18 C18        -1.3983   -0.2632   47.7512 C.ar    1  ZINC000821177065    0.1100
     19 C19        -1.8831   -1.5462   47.9194 C.ar    1  ZINC000821177065   -0.1500
     20 C20        -0.9983   -2.5675   48.2306 C.ar    1  ZINC000821177065   -0.0700
     21 C21         0.3467   -2.2583   48.3614 C.ar    1  ZINC000821177065   -0.1700
     22 C22         0.7582   -0.9515   48.1785 C.ar    1  ZINC000821177065    0.1000
     23 N23        -0.1109   -0.0064   47.8784 N.ar    1  ZINC000821177065   -0.4700
     24 C24        -1.4739    3.0072   48.3546 C.2     1  ZINC000821177065    0.0700
     25 C25        -1.6694    3.7280   49.4821 C.2     1  ZINC000821177065   -0.2600
     26 H26        -3.6235    4.0890   53.9160 H       1  ZINC000821177065    0.4000
     27 H27        -1.2092    2.7454   54.8914 H       1  ZINC000821177065    0.0700
     28 H28        -1.2695    4.5101   55.1160 H       1  ZINC000821177065    0.0800
     29 H29        -2.8941    1.4070   56.0693 H       1  ZINC000821177065    0.3800
     30 H30        -2.2222    2.7917   58.3313 H       1  ZINC000821177065    0.1100
     31 H31         0.2887    2.8356   57.9713 H       1  ZINC000821177065    0.0900
     32 H32         0.0314    3.4514   56.2521 H       1  ZINC000821177065    0.1100
     33 H33        -1.1555    5.4997   57.1632 H       1  ZINC000821177065    0.1000
     34 H34        -0.8982    4.8839   58.8825 H       1  ZINC000821177065    0.0900
     35 H35        -3.3574    5.5443   56.0142 H       1  ZINC000821177065    0.1100
     36 H36        -5.8188    5.0291   55.6796 H       1  ZINC000821177065    0.1000
     37 H37        -5.4809    3.2369   55.9533 H       1  ZINC000821177065    0.1100
     38 H38        -4.5979    3.7577   58.2735 H       1  ZINC000821177065    0.0900
     39 H39        -4.9359    5.5500   57.9998 H       1  ZINC000821177065    0.1000
     40 H40        -3.9614    3.8075   51.6235 H       1  ZINC000821177065    0.4100
     41 H41        -3.3698    0.4685   47.3881 H       1  ZINC000821177065    0.1000
     42 H42        -2.0949    1.2664   46.4361 H       1  ZINC000821177065    0.1200
     43 H43        -2.9379   -1.7509   47.8102 H       1  ZINC000821177065    0.1400
     44 H44        -1.3487   -3.5799   48.3681 H       1  ZINC000821177065    0.1400
     45 H45         1.0640   -3.0287   48.6034 H       1  ZINC000821177065    0.1400
     46 H46         1.8043   -0.7022   48.2791 H       1  ZINC000821177065    0.1600
     47 H47        -0.8165    3.2686   47.5386 H       1  ZINC000821177065    0.1800
     48 H48        -1.1927    4.6654   49.7280 H       1  ZINC000821177065    0.1700
@<TRIPOS>BOND
     1     1     2    2
     2     2     3   am
     3     2    13   am
     4     3     4    1
     5     3    26    1
     6     4     5    1
     7     4    27    1
     8     4    28    1
     9     5     6    1
    10     5     7    1
    11     5    10    1
    12     6    29    1
    13     7     9    1
    14     7     8    1
    15     7    30    1
    16     8     9    1
    17     8    31    1
    18     8    32    1
    19     9    33    1
    20     9    34    1
    21    10    12    1
    22    10    11    1
    23    10    35    1
    24    11    12    1
    25    11    36    1
    26    11    37    1
    27    12    38    1
    28    12    39    1
    29    13    14    1
    30    13    40    1
    31    14    25    1
    32    14    15    2
    33    15    16    1
    34    16    17    1
    35    16    24    1
    36    17    18    1
    37    17    41    1
    38    17    42    1
    39    18    23   ar
    40    18    19   ar
    41    19    20   ar
    42    19    43    1
    43    20    21   ar
    44    20    44    1
    45    21    22   ar
    46    21    45    1
    47    22    23   ar
    48    22    46    1
    49    24    25    2
    50    24    47    1
    51    25    48    1
@<TRIPOS>SUBSTRUCTURE
     1 ZINC000821177065        1 TEMP              0 ****  ****    0 ROOT


##########                                Name:    ZINC000433961694
##########                DOCK_Rotatable_Bonds:                   7
##########                         Heavy_Atoms:                  29
##########                    Molecular_Weight:             413.472
##########                DOCK_Rotatable_Bonds:                   7
##########                       Formal_Charge:          0.00999992
##########                     HBond_Acceptors:                   8
##########                        HBond_Donors:                   0
##########                         Heavy_Atoms:                  29
##########                          Grid_Score:          -34.351383
##########                     Grid_vdw_energy:          -31.914051
##########                      Grid_es_energy:           -2.437333
##########           Internal_energy_repulsive:           11.881891

@<TRIPOS>MOLECULE
ZINC000433961694
 49 52 1 0 0
SMALL
USER_CHARGES


@<TRIPOS>ATOM
      1 C1         -0.5242    3.2066   54.6473 C.3     1  ZINC000433961694   -0.1000
      2 C2         -1.6284    3.5138   53.6688 C.2     1  ZINC000433961694    0.1600
      3 C3         -2.7934    4.1051   54.0341 C.2     1  ZINC000433961694   -0.3000
      4 C4         -3.1607    4.5282   55.3897 C.2     1  ZINC000433961694    0.6200
      5 O5         -2.5845    5.4640   55.9121 O.2     1  ZINC000433961694   -0.5100
      6 N6         -4.1363    3.8803   56.0567 N.am    1  ZINC000433961694   -0.6100
      7 C7         -4.6040    4.1987   57.4181 C.3     1  ZINC000433961694    0.1100
      8 C8         -6.0516    3.6504   57.4785 C.3     1  ZINC000433961694   -0.1300
      9 C9         -5.9274    2.3502   56.6410 C.3     1  ZINC000433961694    0.0800
     10 H10        -5.5426    1.5334   57.2516 H       1  ZINC000433961694    0.1000
     11 O11        -7.1866    1.9981   56.0644 O.3     1  ZINC000433961694   -0.2900
     12 C12        -8.1495    1.5534   56.9114 C.ar    1  ZINC000433961694    0.1700
     13 C13        -7.8361    1.1805   58.2161 C.ar    1  ZINC000433961694   -0.2600
     14 C14        -8.8434    0.7336   59.0464 C.ar    1  ZINC000433961694    0.1400
     15 N15       -10.0892    0.6579   58.6179 N.ar    1  ZINC000433961694   -0.5100
     16 C16       -10.4254    1.0021   57.3891 C.ar    1  ZINC000433961694    0.1400
     17 C17        -9.4769    1.4642   56.4998 C.ar    1  ZINC000433961694   -0.2000
     18 C18        -4.9150    2.7431   55.5447 C.3     1  ZINC000433961694    0.0600
     19 S19        -3.7862    4.2742   52.5881 S.3     1  ZINC000433961694    0.2100
     20 C20        -2.5581    3.5453   51.6484 C.2     1  ZINC000433961694    0.0400
     21 C21        -2.6420    3.3009   50.1637 C.3     1  ZINC000433961694    0.1400
     22 O22        -1.6490    2.3471   49.7811 O.3     1  ZINC000433961694   -0.3000
     23 C23        -1.7849    1.7720   48.5568 C.ar    1  ZINC000433961694    0.1200
     24 C24        -1.1308    2.3125   47.4595 C.ar    1  ZINC000433961694   -0.1800
     25 C25        -1.2698    1.7271   46.2159 C.ar    1  ZINC000433961694   -0.1100
     26 C26        -2.0620    0.6017   46.0645 C.ar    1  ZINC000433961694    0.0600
     27 F27        -2.1974    0.0304   44.8478 F       1  ZINC000433961694   -0.1400
     28 C28        -2.7150    0.0608   47.1591 C.ar    1  ZINC000433961694   -0.1100
     29 C29        -2.5732    0.6409   48.4049 C.ar    1  ZINC000433961694   -0.1200
     30 N30        -1.5440    3.2382   52.3915 N.2     1  ZINC000433961694   -0.4500
     31 H31         0.1530    4.0585   54.7101 H       1  ZINC000433961694    0.0800
     32 H32        -0.9535    3.0105   55.6298 H       1  ZINC000433961694    0.1000
     33 H33         0.0266    2.3287   54.3097 H       1  ZINC000433961694    0.0800
     34 H34        -3.9788    3.7017   58.1599 H       1  ZINC000433961694    0.0800
     35 H35        -4.5997    5.2769   57.5783 H       1  ZINC000433961694    0.1000
     36 H36        -6.3424    3.4277   58.5051 H       1  ZINC000433961694    0.1000
     37 H37        -6.7526    4.3465   57.0179 H       1  ZINC000433961694    0.1000
     38 H38        -6.8184    1.2397   58.5729 H       1  ZINC000433961694    0.1400
     39 H39        -8.6093    0.4420   60.0595 H       1  ZINC000433961694    0.1600
     40 H40       -11.4564    0.9254   57.0769 H       1  ZINC000433961694    0.1700
     41 H41        -9.7587    1.7446   55.4956 H       1  ZINC000433961694    0.1400
     42 H42        -5.4448    3.0294   54.6361 H       1  ZINC000433961694    0.0900
     43 H43        -4.2477    1.9061   55.3392 H       1  ZINC000433961694    0.0800
     44 H44        -3.6307    2.9160   49.9141 H       1  ZINC000433961694    0.0900
     45 H45        -2.4713    4.2365   49.6312 H       1  ZINC000433961694    0.1000
     46 H46        -0.5135    3.1908   47.5772 H       1  ZINC000433961694    0.1400
     47 H47        -0.7607    2.1477   45.3614 H       1  ZINC000433961694    0.1400
     48 H48        -3.3323   -0.8172   47.0396 H       1  ZINC000433961694    0.1500
     49 H49        -3.0826    0.2188   49.2585 H       1  ZINC000433961694    0.1400
@<TRIPOS>BOND
     1     1     2    1
     2     1    31    1
     3     1    32    1
     4     1    33    1
     5     2    30    1
     6     2     3    2
     7     3     4    1
     8     3    19    1
     9     4     5    2
    10     4     6   am
    11     6    18    1
    12     6     7    1
    13     7     8    1
    14     7    34    1
    15     7    35    1
    16     8     9    1
    17     8    36    1
    18     8    37    1
    19     9    10    1
    20     9    11    1
    21     9    18    1
    22    11    12    1
    23    12    17   ar
    24    12    13   ar
    25    13    14   ar
    26    13    38    1
    27    14    15   ar
    28    14    39    1
    29    15    16   ar
    30    16    17   ar
    31    16    40    1
    32    17    41    1
    33    18    42    1
    34    18    43    1
    35    19    20    1
    36    20    21    1
    37    20    30    2
    38    21    22    1
    39    21    44    1
    40    21    45    1
    41    22    23    1
    42    23    29   ar
    43    23    24   ar
    44    24    25   ar
    45    24    46    1
    46    25    26   ar
    47    25    47    1
    48    26    27    1
    49    26    28   ar
    50    28    29   ar
    51    28    48    1
    52    29    49    1
@<TRIPOS>SUBSTRUCTURE
     1 ZINC000433961694        1 TEMP              0 ****  ****    0 ROOT


##########                                Name:    ZINC000912668252
##########                DOCK_Rotatable_Bonds:                  10
##########                         Heavy_Atoms:                  30
##########                    Molecular_Weight:             411.433
##########                DOCK_Rotatable_Bonds:                  10
##########                       Formal_Charge:           0.0199993
##########                     HBond_Acceptors:                   8
##########                        HBond_Donors:                   2
##########                         Heavy_Atoms:                  30
##########                          Grid_Score:          -34.241711
##########                     Grid_vdw_energy:          -32.412777
##########                      Grid_es_energy:           -1.828935
##########           Internal_energy_repulsive:           13.460778

@<TRIPOS>MOLECULE
ZINC000912668252
 52 54 1 0 0
SMALL
USER_CHARGES


@<TRIPOS>ATOM
      1 C1         -9.7114   -1.1944   51.5164 C.3     1  ZINC000912668252   -0.1700
      2 C2         -9.9614   -0.5766   52.8936 C.3     1  ZINC000912668252    0.1100
      3 N3        -10.9101    0.5324   52.7663 N.am    1  ZINC000912668252   -0.6100
      4 C4        -12.2742    0.2792   52.2960 C.3     1  ZINC000912668252    0.1000
      5 C5        -13.0897   -0.3645   53.4192 C.3     1  ZINC000912668252   -0.1800
      6 C6        -10.5278    1.7858   53.0820 C.2     1  ZINC000912668252    0.5600
      7 O7        -11.3149    2.7059   52.9762 O.2     1  ZINC000912668252   -0.5300
      8 C8         -9.1510    2.0413   53.5567 C.ar    1  ZINC000912668252   -0.1100
      9 C9         -8.8405    1.9046   54.9106 C.ar    1  ZINC000912668252   -0.1100
     10 C10        -7.5544    2.1433   55.3511 C.ar    1  ZINC000912668252   -0.1000
     11 C11        -6.5705    2.5179   54.4554 C.ar    1  ZINC000912668252   -0.1200
     12 C12        -6.8697    2.6567   53.1052 C.ar    1  ZINC000912668252    0.1400
     13 N13        -5.8697    3.0358   52.2023 N.am    1  ZINC000912668252   -0.6700
     14 C14        -5.3002    4.2535   52.2997 C.2     1  ZINC000912668252    0.5200
     15 O15        -5.6543    5.0207   53.1698 O.2     1  ZINC000912668252   -0.4900
     16 C16        -4.2235    4.6617   51.3276 C.3     1  ZINC000912668252    0.0500
     17 O17        -2.9199    4.4325   51.9249 O.3     1  ZINC000912668252   -0.3300
     18 C18        -1.8734    4.3126   51.0831 C.2     1  ZINC000912668252    0.5400
     19 O19        -0.8882    5.0087   51.2350 O.2     1  ZINC000912668252   -0.4800
     20 C20        -1.9236    3.3410   49.9825 C.2     1  ZINC000912668252    0.0400
     21 C21        -1.4353    3.5430   48.7299 C.2     1  ZINC000912668252   -0.0900
     22 C22        -1.6811    2.3699   47.9769 C.ar    1  ZINC000912668252   -0.1000
     23 C23        -1.4075    2.0021   46.6529 C.ar    1  ZINC000912668252   -0.0900
     24 C24        -1.7770    0.7666   46.2010 C.ar    1  ZINC000912668252    0.0700
     25 F25        -1.5123    0.4140   44.9239 F       1  ZINC000912668252   -0.1400
     26 C26        -2.4228   -0.1312   47.0444 C.ar    1  ZINC000912668252   -0.1100
     27 C27        -2.7022    0.2088   48.3492 C.ar    1  ZINC000912668252   -0.1000
     28 C28        -2.3356    1.4617   48.8322 C.ar    1  ZINC000912668252    0.1100
     29 N29        -2.4694    2.0738   50.0568 N.pl3   1  ZINC000912668252   -0.5600
     30 C30        -8.1568    2.4142   52.6520 C.ar    1  ZINC000912668252   -0.0700
     31 H31        -9.0055   -2.0197   51.6111 H       1  ZINC000912668252    0.0700
     32 H32       -10.6516   -1.5655   51.1086 H       1  ZINC000912668252    0.0600
     33 H33        -9.2988   -0.4383   50.8484 H       1  ZINC000912668252    0.0600
     34 H34       -10.3740   -1.3328   53.5615 H       1  ZINC000912668252    0.0800
     35 H35        -9.0212   -0.2056   53.3015 H       1  ZINC000912668252    0.0900
     36 H36       -12.7384    1.2211   52.0038 H       1  ZINC000912668252    0.0900
     37 H37       -12.2439   -0.3925   51.4381 H       1  ZINC000912668252    0.0800
     38 H38       -12.8812   -1.4339   53.4526 H       1  ZINC000912668252    0.0600
     39 H39       -12.8167    0.0888   54.3721 H       1  ZINC000912668252    0.0700
     40 H40       -14.1521   -0.2071   53.2331 H       1  ZINC000912668252    0.0700
     41 H41        -9.6065    1.6125   55.6135 H       1  ZINC000912668252    0.1400
     42 H42        -7.3161    2.0375   56.3990 H       1  ZINC000912668252    0.1400
     43 H43        -5.5661    2.7037   54.8060 H       1  ZINC000912668252    0.1300
     44 H44        -5.5865    2.4222   51.5065 H       1  ZINC000912668252    0.4200
     45 H45        -4.3143    4.0712   50.4159 H       1  ZINC000912668252    0.1100
     46 H46        -4.3324    5.7194   51.0878 H       1  ZINC000912668252    0.1100
     47 H47        -0.9477    4.4382   48.3731 H       1  ZINC000912668252    0.1700
     48 H48        -0.9065    2.6932   45.9914 H       1  ZINC000912668252    0.1400
     49 H49        -2.7081   -1.1040   46.6724 H       1  ZINC000912668252    0.1400
     50 H50        -3.2047   -0.4948   48.9963 H       1  ZINC000912668252    0.1400
     51 H51        -2.8807    1.6811   50.8426 H       1  ZINC000912668252    0.4300
     52 H52        -8.3912    2.5215   51.6032 H       1  ZINC000912668252    0.1400
@<TRIPOS>BOND
     1     1     2    1
     2     1    31    1
     3     1    32    1
     4     1    33    1
     5     2     3    1
     6     2    34    1
     7     2    35    1
     8     3     4    1
     9     3     6   am
    10     4     5    1
    11     4    36    1
    12     4    37    1
    13     5    38    1
    14     5    39    1
    15     5    40    1
    16     6     7    2
    17     6     8    1
    18     8    30   ar
    19     8     9   ar
    20     9    10   ar
    21     9    41    1
    22    10    11   ar
    23    10    42    1
    24    11    12   ar
    25    11    43    1
    26    12    13    1
    27    12    30   ar
    28    13    14   am
    29    13    44    1
    30    14    15    2
    31    14    16    1
    32    16    17    1
    33    16    45    1
    34    16    46    1
    35    17    18    1
    36    18    19    2
    37    18    20    1
    38    20    29    1
    39    20    21    2
    40    21    22    1
    41    21    47    1
    42    22    28   ar
    43    22    23   ar
    44    23    24   ar
    45    23    48    1
    46    24    25    1
    47    24    26   ar
    48    26    27   ar
    49    26    49    1
    50    27    28   ar
    51    27    50    1
    52    28    29    1
    53    29    51    1
    54    30    52    1
@<TRIPOS>SUBSTRUCTURE
     1 ZINC000912668252        1 TEMP              0 ****  ****    0 ROOT


##########                                Name:    ZINC001000186632
##########                DOCK_Rotatable_Bonds:                   7
##########                         Heavy_Atoms:                  23
##########                    Molecular_Weight:             342.379
##########                DOCK_Rotatable_Bonds:                   7
##########                       Formal_Charge:          -0.0100001
##########                     HBond_Acceptors:                  11
##########                        HBond_Donors:                   2
##########                         Heavy_Atoms:                  23
##########                          Grid_Score:          -34.221508
##########                     Grid_vdw_energy:          -31.446428
##########                      Grid_es_energy:           -2.775079
##########           Internal_energy_repulsive:            5.789848

@<TRIPOS>MOLECULE
ZINC001000186632
 41 43 1 0 0
SMALL
USER_CHARGES


@<TRIPOS>ATOM
      1 O1         -1.5415    5.0104   53.2596 O.2     1  ZINC001000186632   -0.5200
      2 C2         -1.7845    3.8317   53.4097 C.2     1  ZINC001000186632    0.5300
      3 C3         -1.5443    3.1770   54.7456 C.3     1  ZINC001000186632   -0.0500
      4 C4         -0.1302    2.6594   54.8043 C.2     1  ZINC001000186632    0.2400
      5 N5          0.2682    1.6129   55.4788 N.2     1  ZINC001000186632   -0.3000
      6 N6          1.6494    1.4889   55.2569 N.pl3   1  ZINC001000186632   -0.4800
      7 C7          1.9938    2.4996   54.4403 C.2     1  ZINC001000186632    0.2700
      8 N8          0.9157    3.1907   54.1726 N.2     1  ZINC001000186632   -0.5400
      9 N9         -2.2747    3.1086   52.3833 N.am    1  ZINC001000186632   -0.7100
     10 C10        -2.5082    3.7450   51.0847 C.3     1  ZINC001000186632    0.1100
     11 C11        -1.2235    4.2453   50.3996 C.3     1  ZINC001000186632    0.1000
     12 N12        -1.1649    2.9151   49.7630 N.am    1  ZINC001000186632   -0.6500
     13 C13        -0.1766    2.1574   49.2476 C.2     1  ZINC001000186632    0.5100
     14 O14         0.9661    2.5641   49.2549 O.2     1  ZINC001000186632   -0.5100
     15 C15        -0.4913    0.8049   48.6623 C.3     1  ZINC001000186632    0.1500
     16 N16        -0.9971    0.9692   47.2972 N.am    1  ZINC001000186632   -0.9800
     17 C17        -0.4600    1.8777   46.2731 C.3     1  ZINC001000186632    0.0800
     18 C18        -0.7137    1.3006   44.8673 C.3     1  ZINC001000186632   -0.1300
     19 C19        -2.1938    0.8222   44.9097 C.3     1  ZINC001000186632   -0.6000
     20 S20        -2.2853    0.1539   46.6153 S.o2    1  ZINC001000186632    2.5700
     21 O21        -1.9231   -1.2197   46.6504 O.2     1  ZINC001000186632   -0.9400
     22 O22        -3.4303    0.6438   47.2996 O.2     1  ZINC001000186632   -0.9600
     23 C23        -2.6230    2.7479   49.9174 C.3     1  ZINC001000186632    0.0900
     24 H24        -1.6973    3.9068   55.5407 H       1  ZINC001000186632    0.1300
     25 H25        -2.2402    2.3481   54.8745 H       1  ZINC001000186632    0.1200
     26 H26         2.2380    0.8091   55.6208 H       1  ZINC001000186632    0.4400
     27 H27         2.9868    2.7034   54.0673 H       1  ZINC001000186632    0.2200
     28 H28        -2.4727    2.1668   52.5046 H       1  ZINC001000186632    0.4100
     29 H29        -3.3094    4.4836   51.1113 H       1  ZINC001000186632    0.1200
     30 H30        -1.3897    5.0617   49.6969 H       1  ZINC001000186632    0.1000
     31 H31        -0.4033    4.4379   51.0911 H       1  ZINC001000186632    0.0900
     32 H32         0.4137    0.1975   48.6437 H       1  ZINC001000186632    0.1100
     33 H33        -1.2474    0.3117   49.2730 H       1  ZINC001000186632    0.1100
     34 H34        -0.9489    2.8482   46.3587 H       1  ZINC001000186632    0.0800
     35 H35         0.6123    2.0001   46.4253 H       1  ZINC001000186632    0.0900
     36 H36        -0.5843    2.0728   44.1092 H       1  ZINC001000186632    0.1100
     37 H37        -0.0470    0.4601   44.6744 H       1  ZINC001000186632    0.1000
     38 H38        -2.8812    1.6570   44.7730 H       1  ZINC001000186632    0.1400
     39 H39        -2.3759    0.0401   44.1727 H       1  ZINC001000186632    0.1400
     40 H40        -2.9201    1.7450   50.2240 H       1  ZINC001000186632    0.0900
     41 H41        -3.2003    3.1244   49.0730 H       1  ZINC001000186632    0.1100
@<TRIPOS>BOND
     1     1     2    2
     2     2     3    1
     3     2     9   am
     4     3     4    1
     5     3    24    1
     6     3    25    1
     7     4     8    1
     8     4     5    2
     9     5     6    1
    10     6     7    1
    11     6    26    1
    12     7     8    2
    13     7    27    1
    14     9    10    1
    15     9    28    1
    16    10    23    1
    17    10    11    1
    18    10    29    1
    19    11    12    1
    20    11    30    1
    21    11    31    1
    22    12    13   am
    23    12    23    1
    24    13    14    2
    25    13    15    1
    26    15    16    1
    27    15    32    1
    28    15    33    1
    29    16    20   am
    30    16    17    1
    31    17    18    1
    32    17    34    1
    33    17    35    1
    34    18    19    1
    35    18    36    1
    36    18    37    1
    37    19    20    1
    38    19    38    1
    39    19    39    1
    40    20    21    2
    41    20    22    2
    42    23    40    1
    43    23    41    1
@<TRIPOS>SUBSTRUCTURE
     1 ZINC001000186632        1 TEMP              0 ****  ****    0 ROOT


##########                                Name:    ZINC001573443776
##########                DOCK_Rotatable_Bonds:                   8
##########                         Heavy_Atoms:                  28
##########                    Molecular_Weight:             386.457
##########                DOCK_Rotatable_Bonds:                   8
##########                       Formal_Charge:          0.00999954
##########                     HBond_Acceptors:                  10
##########                        HBond_Donors:                   3
##########                         Heavy_Atoms:                  28
##########                          Grid_Score:          -34.213150
##########                     Grid_vdw_energy:          -32.093472
##########                      Grid_es_energy:           -2.119678
##########           Internal_energy_repulsive:           30.082285

@<TRIPOS>MOLECULE
ZINC001573443776
 54 56 1 0 0
SMALL
USER_CHARGES


@<TRIPOS>ATOM
      1 C1         -4.1359    1.7471   56.4479 C.3     1  ZINC001573443776   -0.1800
      2 C2         -5.6409    1.8181   56.4808 C.2     1  ZINC001573443776    0.5100
      3 O3         -6.2599    1.1846   57.3094 O.2     1  ZINC001573443776   -0.5400
      4 N4         -6.2990    2.5855   55.5895 N.am    1  ZINC001573443776   -0.6100
      5 C5         -7.7660    2.6648   55.6090 C.3     1  ZINC001573443776    0.1100
      6 C6         -8.2967    2.3291   54.2117 C.3     1  ZINC001573443776   -0.1300
      7 C7         -7.6312    3.2468   53.1836 C.3     1  ZINC001573443776   -0.1000
      8 C8         -6.1184    3.0153   53.1942 C.3     1  ZINC001573443776   -0.1200
      9 H9         -5.9087    1.9701   52.9671 H       1  ZINC001573443776    0.1000
     10 C10        -5.4676    3.8955   52.1585 C.2     1  ZINC001573443776    0.5200
     11 O11        -5.9887    4.9429   51.8388 O.2     1  ZINC001573443776   -0.5300
     12 N12        -4.3064    3.5185   51.5874 N.am    1  ZINC001573443776   -0.7300
     13 C13        -3.6729    4.3750   50.5817 C.3     1  ZINC001573443776    0.1100
     14 C14        -2.1805    4.0476   50.5002 C.3     1  ZINC001573443776    0.1400
     15 H15        -1.6848    4.7707   49.8525 H       1  ZINC001573443776    0.0900
     16 C16        -1.5669    4.1123   51.9003 C.3     1  ZINC001573443776   -0.1700
     17 N17        -2.0053    2.7004   49.9521 N.pl3   1  ZINC001573443776   -0.7200
     18 C18        -1.3832    2.5263   48.7222 C.ar    1  ZINC001573443776    0.4300
     19 C19        -0.1349    3.0992   48.4965 C.ar    1  ZINC001573443776   -0.2500
     20 C20         0.4770    2.9211   47.2712 C.ar    1  ZINC001573443776    0.0100
     21 C21        -0.1877    2.1663   46.2989 C.ar    1  ZINC001573443776   -0.1400
     22 C22         0.4283    1.9457   44.9666 C.2     1  ZINC001573443776    0.2400
     23 N23         0.5949    2.8454   44.0175 N.2     1  ZINC001573443776   -0.3000
     24 N24         1.1648    2.2639   43.0186 N.pl3   1  ZINC001573443776   -0.2300
     25 N25         1.3647    1.0247   43.3046 N.2     1  ZINC001573443776   -0.0500
     26 N26         0.9289    0.7943   44.4965 N.2     1  ZINC001573443776   -0.2700
     27 C27        -1.4343    1.6245   46.5979 C.ar    1  ZINC001573443776    0.2300
     28 C28        -2.1614    0.8093   45.5598 C.3     1  ZINC001573443776   -0.1200
     29 N29        -1.9832    1.8128   47.7811 N.ar    1  ZINC001573443776   -0.5400
     30 C30        -5.5628    3.3632   54.5836 C.3     1  ZINC001573443776    0.1200
     31 H31        -3.8258    0.8835   55.8596 H       1  ZINC001573443776    0.0900
     32 H32        -3.7391    2.6561   55.9960 H       1  ZINC001573443776    0.0800
     33 H33        -3.7545    1.6502   57.4643 H       1  ZINC001573443776    0.1000
     34 H34        -8.1610    1.9504   56.3313 H       1  ZINC001573443776    0.1000
     35 H35        -8.0737    3.6737   55.8841 H       1  ZINC001573443776    0.0700
     36 H36        -8.0665    1.2903   53.9750 H       1  ZINC001573443776    0.0700
     37 H37        -9.3762    2.4777   54.1871 H       1  ZINC001573443776    0.0800
     38 H38        -8.0252    3.0267   52.1914 H       1  ZINC001573443776    0.0800
     39 H39        -7.8412    4.2864   53.4350 H       1  ZINC001573443776    0.0700
     40 H40        -3.8902    2.6803   51.8421 H       1  ZINC001573443776    0.4000
     41 H41        -4.1368    4.2001   49.6111 H       1  ZINC001573443776    0.0900
     42 H42        -3.8006    5.4206   50.8624 H       1  ZINC001573443776    0.0800
     43 H43        -1.6973    5.1147   52.3082 H       1  ZINC001573443776    0.0700
     44 H44        -2.0626    3.3892   52.5481 H       1  ZINC001573443776    0.0700
     45 H45        -0.5038    3.8792   51.8423 H       1  ZINC001573443776    0.0700
     46 H46        -2.3237    1.9299   50.4479 H       1  ZINC001573443776    0.4100
     47 H47         0.3493    3.6764   49.2703 H       1  ZINC001573443776    0.1400
     48 H48         1.4452    3.3544   47.0686 H       1  ZINC001573443776    0.1400
     49 H49         1.4053    2.6926   42.1824 H       1  ZINC001573443776    0.4800
     50 H50        -1.8823   -0.2395   45.6604 H       1  ZINC001573443776    0.0800
     51 H51        -3.2368    0.9144   45.7032 H       1  ZINC001573443776    0.0800
     52 H52        -1.8912    1.1634   44.5650 H       1  ZINC001573443776    0.1100
     53 H53        -5.6913    4.4291   54.7722 H       1  ZINC001573443776    0.0800
     54 H54        -4.5042    3.1072   54.6285 H       1  ZINC001573443776    0.0900
@<TRIPOS>BOND
     1     1     2    1
     2     1    31    1
     3     1    32    1
     4     1    33    1
     5     2     3    2
     6     2     4   am
     7     4    30    1
     8     4     5    1
     9     5     6    1
    10     5    34    1
    11     5    35    1
    12     6     7    1
    13     6    36    1
    14     6    37    1
    15     7     8    1
    16     7    38    1
    17     7    39    1
    18     8     9    1
    19     8    10    1
    20     8    30    1
    21    10    11    2
    22    10    12   am
    23    12    13    1
    24    12    40    1
    25    13    14    1
    26    13    41    1
    27    13    42    1
    28    14    15    1
    29    14    16    1
    30    14    17    1
    31    16    43    1
    32    16    44    1
    33    16    45    1
    34    17    18    1
    35    17    46    1
    36    18    29   ar
    37    18    19   ar
    38    19    20   ar
    39    19    47    1
    40    20    21   ar
    41    20    48    1
    42    21    22    1
    43    21    27   ar
    44    22    26    1
    45    22    23    2
    46    23    24    1
    47    24    25    1
    48    24    49    1
    49    25    26    2
    50    27    28    1
    51    27    29   ar
    52    28    50    1
    53    28    51    1
    54    28    52    1
    55    30    53    1
    56    30    54    1
@<TRIPOS>SUBSTRUCTURE
     1 ZINC001573443776        1 TEMP              0 ****  ****    0 ROOT


##########                                Name:    ZINC000532153088
##########                DOCK_Rotatable_Bonds:                  11
##########                         Heavy_Atoms:                  29
##########                    Molecular_Weight:             402.484
##########                DOCK_Rotatable_Bonds:                  11
##########                       Formal_Charge:          -0.0200009
##########                     HBond_Acceptors:                   6
##########                        HBond_Donors:                   1
##########                         Heavy_Atoms:                  29
##########                          Grid_Score:          -34.210518
##########                     Grid_vdw_energy:          -33.360992
##########                      Grid_es_energy:           -0.849524
##########           Internal_energy_repulsive:           17.243797

@<TRIPOS>MOLECULE
ZINC000532153088
 57 59 1 0 0
SMALL
USER_CHARGES


@<TRIPOS>ATOM
      1 C1         -0.0203    2.7287   57.7412 C.3     1  ZINC000532153088   -0.1800
      2 C2         -0.0823    2.8627   56.2184 C.3     1  ZINC000532153088    0.0800
      3 C3          0.8701    1.8509   55.5781 C.3     1  ZINC000532153088   -0.1500
      4 O4         -1.4161    2.6102   55.7719 O.3     1  ZINC000532153088   -0.3800
      5 C5         -2.3684    3.5830   56.2064 C.3     1  ZINC000532153088    0.1000
      6 C6         -3.7030    3.3003   55.5659 C.ar    1  ZINC000532153088   -0.0700
      7 C7         -4.6349    2.5213   56.2253 C.ar    1  ZINC000532153088   -0.1000
      8 C8         -5.8592    2.2621   55.6375 C.ar    1  ZINC000532153088   -0.1100
      9 C9         -6.1514    2.7824   54.3909 C.ar    1  ZINC000532153088   -0.1200
     10 C10        -5.2195    3.5625   53.7316 C.ar    1  ZINC000532153088   -0.1000
     11 C11        -3.9972    3.8252   54.3210 C.ar    1  ZINC000532153088   -0.1100
     12 C12        -2.9814    4.6755   53.6026 C.3     1  ZINC000532153088    0.1600
     13 N13        -3.0579    4.4159   52.1628 N.am    1  ZINC000532153088   -0.7300
     14 C14        -2.4169    3.3545   51.6344 C.2     1  ZINC000532153088    0.5100
     15 O15        -1.7756    2.6153   52.3507 O.2     1  ZINC000532153088   -0.5000
     16 C16        -2.4971    3.0864   50.1536 C.3     1  ZINC000532153088    0.0300
     17 N17        -1.1402    3.0042   49.5967 N.3     1  ZINC000532153088   -0.4800
     18 C18        -1.1575    2.4090   48.2538 C.3     1  ZINC000532153088    0.1000
     19 C19        -1.0932    0.9078   48.3689 C.ar    1  ZINC000532153088   -0.1300
     20 C20        -2.2596    0.1685   48.4198 C.ar    1  ZINC000532153088   -0.0600
     21 C21        -2.2022   -1.2087   48.5249 C.ar    1  ZINC000532153088   -0.1700
     22 C22        -0.9758   -1.8488   48.5791 C.ar    1  ZINC000532153088    0.1300
     23 F23        -0.9199   -3.1948   48.6812 F       1  ZINC000532153088   -0.1300
     24 C24         0.1934   -1.1092   48.5281 C.ar    1  ZINC000532153088   -0.2000
     25 C25         0.1347    0.2692   48.4176 C.ar    1  ZINC000532153088    0.1600
     26 F26         1.2748    0.9923   48.3677 F       1  ZINC000532153088   -0.1100
     27 C27        -0.4975    4.3250   49.5789 C.3     1  ZINC000532153088    0.0200
     28 C28         0.5480    4.6164   50.6572 C.3     1  ZINC000532153088   -0.2200
     29 C29         0.9862    4.3837   49.2099 C.3     1  ZINC000532153088   -0.1700
     30 H30         0.9970    2.9213   58.0818 H       1  ZINC000532153088    0.0700
     31 H31        -0.6988    3.4495   58.1973 H       1  ZINC000532153088    0.0600
     32 H32        -0.3150    1.7195   58.0294 H       1  ZINC000532153088    0.0700
     33 H33         0.2124    3.8719   55.9301 H       1  ZINC000532153088    0.0600
     34 H34         0.5754    0.8418   55.8662 H       1  ZINC000532153088    0.0600
     35 H35         0.8259    1.9465   54.4932 H       1  ZINC000532153088    0.0600
     36 H36         1.8874    2.0435   55.9187 H       1  ZINC000532153088    0.0700
     37 H37        -2.4683    3.5346   57.2907 H       1  ZINC000532153088    0.0600
     38 H38        -2.0298    4.5777   55.9167 H       1  ZINC000532153088    0.0600
     39 H39        -4.4066    2.1147   57.1994 H       1  ZINC000532153088    0.1300
     40 H40        -6.5872    1.6527   56.1525 H       1  ZINC000532153088    0.1200
     41 H41        -7.1075    2.5794   53.9315 H       1  ZINC000532153088    0.1300
     42 H42        -5.4476    3.9688   52.7574 H       1  ZINC000532153088    0.1300
     43 H43        -3.1889    5.7285   53.7934 H       1  ZINC000532153088    0.0800
     44 H44        -1.9824    4.4309   53.9632 H       1  ZINC000532153088    0.0800
     45 H45        -3.5699    5.0078   51.5897 H       1  ZINC000532153088    0.4000
     46 H46        -3.0177    2.1442   49.9826 H       1  ZINC000532153088    0.0700
     47 H47        -3.0412    3.8958   49.6668 H       1  ZINC000532153088    0.1100
     48 H48        -2.0760    2.6951   47.7414 H       1  ZINC000532153088    0.0900
     49 H49        -0.2983    2.7671   47.6866 H       1  ZINC000532153088    0.0500
     50 H50        -3.2167    0.6669   48.3780 H       1  ZINC000532153088    0.1400
     51 H51        -3.1143   -1.7855   48.5650 H       1  ZINC000532153088    0.1400
     52 H52         1.1506   -1.6076   48.5703 H       1  ZINC000532153088    0.1500
     53 H53        -1.1299    5.1512   49.2542 H       1  ZINC000532153088    0.1200
     54 H54         0.6035    5.6347   51.0423 H       1  ZINC000532153088    0.1000
     55 H55         0.7590    3.8282   51.3799 H       1  ZINC000532153088    0.1000
     56 H56         1.4854    3.4423   48.9804 H       1  ZINC000532153088    0.1000
     57 H57         1.3299    5.2488   48.6428 H       1  ZINC000532153088    0.1000
@<TRIPOS>BOND
     1     1     2    1
     2     1    30    1
     3     1    31    1
     4     1    32    1
     5     2     3    1
     6     2     4    1
     7     2    33    1
     8     3    34    1
     9     3    35    1
    10     3    36    1
    11     4     5    1
    12     5     6    1
    13     5    37    1
    14     5    38    1
    15     6    11   ar
    16     6     7   ar
    17     7     8   ar
    18     7    39    1
    19     8     9   ar
    20     8    40    1
    21     9    10   ar
    22     9    41    1
    23    10    11   ar
    24    10    42    1
    25    11    12    1
    26    12    13    1
    27    12    43    1
    28    12    44    1
    29    13    14   am
    30    13    45    1
    31    14    15    2
    32    14    16    1
    33    16    17    1
    34    16    46    1
    35    16    47    1
    36    17    18    1
    37    17    27    1
    38    18    19    1
    39    18    48    1
    40    18    49    1
    41    19    25   ar
    42    19    20   ar
    43    20    21   ar
    44    20    50    1
    45    21    22   ar
    46    21    51    1
    47    22    23    1
    48    22    24   ar
    49    24    25   ar
    50    24    52    1
    51    25    26    1
    52    27    29    1
    53    27    28    1
    54    27    53    1
    55    28    29    1
    56    28    54    1
    57    28    55    1
    58    29    56    1
    59    29    57    1
@<TRIPOS>SUBSTRUCTURE
     1 ZINC000532153088        1 TEMP              0 ****  ****    0 ROOT


##########                                Name:    ZINC001408567397
##########                DOCK_Rotatable_Bonds:                   9
##########                         Heavy_Atoms:                  24
##########                    Molecular_Weight:             336.434
##########                DOCK_Rotatable_Bonds:                   9
##########                       Formal_Charge:          -0.0199996
##########                     HBond_Acceptors:                   7
##########                        HBond_Donors:                   2
##########                         Heavy_Atoms:                  24
##########                          Grid_Score:          -34.191078
##########                     Grid_vdw_energy:          -33.191158
##########                      Grid_es_energy:           -0.999920
##########           Internal_energy_repulsive:           17.183380

@<TRIPOS>MOLECULE
ZINC001408567397
 52 53 1 0 0
SMALL
USER_CHARGES


@<TRIPOS>ATOM
      1 C1         -1.1411   -2.2712   48.5390 C.3     1  ZINC001408567397   -0.0800
      2 C2         -0.3681   -1.0846   48.0236 C.2     1  ZINC001408567397    0.0900
      3 N3          0.9352   -0.9772   47.9825 N.2     1  ZINC001408567397   -0.2900
      4 N4          1.2543    0.2728   47.4368 N.pl3   1  ZINC001408567397   -0.4700
      5 C5          0.0987    0.9095   47.1530 C.2     1  ZINC001408567397    0.1100
      6 C6         -0.0335    2.2844   46.5507 C.3     1  ZINC001408567397   -0.1000
      7 C7         -0.9200    0.0896   47.5011 C.2     1  ZINC001408567397   -0.2200
      8 C8         -2.3895    0.3919   47.3591 C.3     1  ZINC001408567397   -0.0600
      9 C9         -2.9298    0.8877   48.6756 C.2     1  ZINC001408567397    0.5100
     10 O10        -3.5360    0.1323   49.4055 O.2     1  ZINC001408567397   -0.5300
     11 N11        -2.7394    2.1707   49.0420 N.am    1  ZINC001408567397   -0.7300
     12 C12        -3.2632    2.6523   50.3226 C.3     1  ZINC001408567397    0.1100
     13 C13        -2.7431    4.0666   50.5869 C.3     1  ZINC001408567397    0.1000
     14 N14        -3.0457    4.4480   51.9687 N.am    1  ZINC001408567397   -0.6200
     15 C15        -4.0062    5.5207   52.2388 C.3     1  ZINC001408567397    0.0700
     16 C16        -2.4406    3.8119   52.9913 C.2     1  ZINC001408567397    0.5100
     17 O17        -1.6444    2.9249   52.7675 O.2     1  ZINC001408567397   -0.5300
     18 C18        -2.7532    4.2031   54.4126 C.3     1  ZINC001408567397   -0.1300
     19 C19        -2.0970    3.2078   55.3716 C.3     1  ZINC001408567397   -0.1100
     20 H20        -2.1551    2.2040   54.9506 H       1  ZINC001408567397    0.0900
     21 C21        -0.6288    3.5907   55.5812 C.3     1  ZINC001408567397   -0.1200
     22 C22        -0.0039    2.6347   56.6019 C.3     1  ZINC001408567397   -0.1600
     23 C23        -0.8102    2.6905   57.9021 C.3     1  ZINC001408567397    0.0600
     24 O24        -2.1723    2.3538   57.6311 O.3     1  ZINC001408567397   -0.3800
     25 C25        -2.8235    3.2403   56.7188 C.3     1  ZINC001408567397    0.0600
     26 H26        -1.3186   -2.9716   47.7228 H       1  ZINC001408567397    0.0800
     27 H27        -0.5680   -2.7653   49.3235 H       1  ZINC001408567397    0.0700
     28 H28        -2.0959   -1.9350   48.9433 H       1  ZINC001408567397    0.0800
     29 H29         2.1481    0.6197   47.2891 H       1  ZINC001408567397    0.4400
     30 H30        -0.0606    2.2040   45.4640 H       1  ZINC001408567397    0.0800
     31 H31        -0.9542    2.7488   46.9038 H       1  ZINC001408567397    0.0900
     32 H32         0.8189    2.8951   46.8486 H       1  ZINC001408567397    0.0700
     33 H33        -2.5308    1.1579   46.5968 H       1  ZINC001408567397    0.1000
     34 H34        -2.9202   -0.5141   47.0667 H       1  ZINC001408567397    0.1000
     35 H35        -2.2557    2.7753   48.4577 H       1  ZINC001408567397    0.4000
     36 H36        -4.3526    2.6664   50.2875 H       1  ZINC001408567397    0.0700
     37 H37        -2.9342    1.9887   51.1224 H       1  ZINC001408567397    0.0700
     38 H38        -1.6647    4.0922   50.4308 H       1  ZINC001408567397    0.0800
     39 H39        -3.2259    4.7650   49.9033 H       1  ZINC001408567397    0.0900
     40 H40        -5.0069    5.0984   52.3289 H       1  ZINC001408567397    0.0600
     41 H41        -3.7385    6.0224   53.1688 H       1  ZINC001408567397    0.0800
     42 H42        -3.9876    6.2398   51.4199 H       1  ZINC001408567397    0.0800
     43 H43        -2.3674    5.2036   54.6074 H       1  ZINC001408567397    0.1000
     44 H44        -3.8329    4.1943   54.5627 H       1  ZINC001408567397    0.1000
     45 H45        -0.0934    3.5145   54.6348 H       1  ZINC001408567397    0.0700
     46 H46        -0.5683    4.6130   55.9545 H       1  ZINC001408567397    0.0600
     47 H47        -0.0197    1.6189   56.2068 H       1  ZINC001408567397    0.0700
     48 H48         1.0256    2.9340   56.7986 H       1  ZINC001408567397    0.0700
     49 H49        -0.3956    1.9805   58.6176 H       1  ZINC001408567397    0.0900
     50 H50        -0.7604    3.6969   58.3177 H       1  ZINC001408567397    0.0500
     51 H51        -2.8004    4.2543   57.1182 H       1  ZINC001408567397    0.0400
     52 H52        -3.8584    2.9263   56.5831 H       1  ZINC001408567397    0.1100
@<TRIPOS>BOND
     1     1     2    1
     2     1    26    1
     3     1    27    1
     4     1    28    1
     5     2     7    1
     6     2     3    2
     7     3     4    1
     8     4     5    1
     9     4    29    1
    10     5     6    1
    11     5     7    2
    12     6    30    1
    13     6    31    1
    14     6    32    1
    15     7     8    1
    16     8     9    1
    17     8    33    1
    18     8    34    1
    19     9    10    2
    20     9    11   am
    21    11    12    1
    22    11    35    1
    23    12    13    1
    24    12    36    1
    25    12    37    1
    26    13    14    1
    27    13    38    1
    28    13    39    1
    29    14    15    1
    30    14    16   am
    31    15    40    1
    32    15    41    1
    33    15    42    1
    34    16    17    2
    35    16    18    1
    36    18    19    1
    37    18    43    1
    38    18    44    1
    39    19    20    1
    40    19    25    1
    41    19    21    1
    42    21    22    1
    43    21    45    1
    44    21    46    1
    45    22    23    1
    46    22    47    1
    47    22    48    1
    48    23    24    1
    49    23    49    1
    50    23    50    1
    51    24    25    1
    52    25    51    1
    53    25    52    1
@<TRIPOS>SUBSTRUCTURE
     1 ZINC001408567397        1 TEMP              0 ****  ****    0 ROOT


##########                                Name:    ZINC000506566356
##########                DOCK_Rotatable_Bonds:                  10
##########                         Heavy_Atoms:                  28
##########                    Molecular_Weight:               415.9
##########                DOCK_Rotatable_Bonds:                  10
##########                       Formal_Charge:           0.0199998
##########                     HBond_Acceptors:                   8
##########                        HBond_Donors:                   2
##########                         Heavy_Atoms:                  28
##########                          Grid_Score:          -34.125763
##########                     Grid_vdw_energy:          -33.211777
##########                      Grid_es_energy:           -0.913987
##########           Internal_energy_repulsive:            7.658153

@<TRIPOS>MOLECULE
ZINC000506566356
 46 48 1 0 0
SMALL
USER_CHARGES


@<TRIPOS>ATOM
      1 O1          0.7290    3.7602   49.9138 O.2     1  ZINC000506566356   -0.5100
      2 C2         -0.4670    3.5826   50.0181 C.2     1  ZINC000506566356    0.5100
      3 N3         -1.1864    4.3280   50.8803 N.am    1  ZINC000506566356   -0.7000
      4 C4         -0.5236    5.3484   51.6960 C.3     1  ZINC000506566356    0.1200
      5 C5         -1.4857    5.8391   52.7798 C.3     1  ZINC000506566356   -0.0900
      6 C6         -1.7971    4.7074   53.7250 C.ar    1  ZINC000506566356   -0.0700
      7 C7         -3.1111    4.3865   54.0095 C.ar    1  ZINC000506566356   -0.1100
      8 C8         -3.3975    3.3480   54.8762 C.ar    1  ZINC000506566356   -0.1000
      9 C9         -2.3702    2.6305   55.4589 C.ar    1  ZINC000506566356   -0.1100
     10 C10        -1.0546    2.9513   55.1744 C.ar    1  ZINC000506566356   -0.0300
     11 Cl11        0.2365    2.0501   55.9056 Cl      1  ZINC000506566356   -0.0700
     12 C12        -0.7686    3.9867   54.3028 C.ar    1  ZINC000506566356   -0.1000
     13 C13        -1.1426    2.5423   49.1865 C.2     1  ZINC000506566356    0.5100
     14 O14        -2.3034    2.2565   49.3973 O.2     1  ZINC000506566356   -0.5000
     15 N15        -0.4636    1.9209   48.2020 N.am    1  ZINC000506566356   -0.6300
     16 C16        -1.0964    0.9465   47.4231 C.ar    1  ZINC000506566356    0.1100
     17 C17        -1.5870   -0.2079   48.0163 C.ar    1  ZINC000506566356   -0.0800
     18 C18        -2.2118   -1.1691   47.2443 C.ar    1  ZINC000506566356   -0.1400
     19 C19        -2.3496   -0.9839   45.8812 C.ar    1  ZINC000506566356   -0.0900
     20 C20        -1.8629    0.1637   45.2824 C.ar    1  ZINC000506566356   -0.1900
     21 C21        -1.2409    1.1350   46.0493 C.ar    1  ZINC000506566356    0.1200
     22 O22        -0.7618    2.2638   45.4622 O.3     1  ZINC000506566356   -0.3100
     23 C23         0.6495    2.3356   45.2497 C.3     1  ZINC000506566356    0.1400
     24 C24         0.9439    2.1934   43.7786 C.2     1  ZINC000506566356    0.0500
     25 C25         0.7501    3.1845   42.9034 C.2     1  ZINC000506566356   -0.2300
     26 S26         1.2171    2.5988   41.3086 S.3     1  ZINC000506566356    0.1400
     27 C27         1.6266    1.0794   41.9773 C.2     1  ZINC000506566356    0.0200
     28 N28         1.4187    1.0832   43.2507 N.2     1  ZINC000506566356   -0.4700
     29 H29        -2.1429    4.1886   50.9608 H       1  ZINC000506566356    0.4200
     30 H30         0.3629    4.9203   52.1639 H       1  ZINC000506566356    0.0800
     31 H31        -0.2316    6.1864   51.0631 H       1  ZINC000506566356    0.0800
     32 H32        -1.0237    6.6573   53.3324 H       1  ZINC000506566356    0.0900
     33 H33        -2.4077    6.1891   52.3157 H       1  ZINC000506566356    0.0900
     34 H34        -3.9143    4.9474   53.5549 H       1  ZINC000506566356    0.1300
     35 H35        -4.4244    3.0977   55.0981 H       1  ZINC000506566356    0.1300
     36 H36        -2.5941    1.8198   56.1364 H       1  ZINC000506566356    0.1300
     37 H37         0.2580    4.2375   54.0804 H       1  ZINC000506566356    0.1300
     38 H38         0.4640    2.1494   48.0335 H       1  ZINC000506566356    0.4300
     39 H39        -1.4805   -0.3553   49.0808 H       1  ZINC000506566356    0.1500
     40 H40        -2.5930   -2.0674   47.7071 H       1  ZINC000506566356    0.1300
     41 H41        -2.8386   -1.7378   45.2821 H       1  ZINC000506566356    0.1300
     42 H42        -1.9717    0.3046   44.2172 H       1  ZINC000506566356    0.1400
     43 H43         1.0217    3.2971   45.6034 H       1  ZINC000506566356    0.0900
     44 H44         1.1408    1.5318   45.7979 H       1  ZINC000506566356    0.0900
     45 H45         0.3737    4.1704   43.1330 H       1  ZINC000506566356    0.1800
     46 H46         2.0084    0.2395   41.4157 H       1  ZINC000506566356    0.2100
@<TRIPOS>BOND
     1     1     2    2
     2     2     3   am
     3     2    13    1
     4     3     4    1
     5     3    29    1
     6     4     5    1
     7     4    30    1
     8     4    31    1
     9     5     6    1
    10     5    32    1
    11     5    33    1
    12     6    12   ar
    13     6     7   ar
    14     7     8   ar
    15     7    34    1
    16     8     9   ar
    17     8    35    1
    18     9    10   ar
    19     9    36    1
    20    10    11    1
    21    10    12   ar
    22    12    37    1
    23    13    14    2
    24    13    15   am
    25    15    16    1
    26    15    38    1
    27    16    21   ar
    28    16    17   ar
    29    17    18   ar
    30    17    39    1
    31    18    19   ar
    32    18    40    1
    33    19    20   ar
    34    19    41    1
    35    20    21   ar
    36    20    42    1
    37    21    22    1
    38    22    23    1
    39    23    24    1
    40    23    43    1
    41    23    44    1
    42    24    28    1
    43    24    25    2
    44    25    26    1
    45    25    45    1
    46    26    27    1
    47    27    28    2
    48    27    46    1
@<TRIPOS>SUBSTRUCTURE
     1 ZINC000506566356        1 TEMP              0 ****  ****    0 ROOT


##########                                Name:    ZINC000621594459
##########                DOCK_Rotatable_Bonds:                  10
##########                         Heavy_Atoms:                  25
##########                    Molecular_Weight:             389.497
##########                DOCK_Rotatable_Bonds:                  10
##########                       Formal_Charge:         -7.7486e-07
##########                     HBond_Acceptors:                  10
##########                        HBond_Donors:                   3
##########                         Heavy_Atoms:                  25
##########                          Grid_Score:          -34.084385
##########                     Grid_vdw_energy:          -32.825733
##########                      Grid_es_energy:           -1.258651
##########           Internal_energy_repulsive:            8.906781

@<TRIPOS>MOLECULE
ZINC000621594459
 48 49 1 0 0
SMALL
USER_CHARGES


@<TRIPOS>ATOM
      1 C1         -9.6275    1.4102   55.0881 C.3     1  ZINC000621594459   -0.1600
      2 C2         -9.9114    1.4870   53.5865 C.3     1  ZINC000621594459    0.1300
      3 C3         -9.2022    2.7068   52.9951 C.3     1  ZINC000621594459   -0.1800
      4 N4         -9.4189    0.2715   52.9336 N.am    1  ZINC000621594459   -1.1100
      5 S5        -10.4881   -0.7943   52.2532 S.o2    1  ZINC000621594459    2.6200
      6 O6        -11.2279   -0.0072   51.3300 O.2     1  ZINC000621594459   -0.9500
      7 O7         -9.6746   -1.8719   51.8101 O.2     1  ZINC000621594459   -0.9400
      8 C8        -11.5437   -1.3187   53.6320 C.3     1  ZINC000621594459   -0.6600
      9 C9        -10.7983   -2.3503   54.4813 C.3     1  ZINC000621594459    0.1300
     10 N10       -11.2570   -2.2629   55.8698 N.am    1  ZINC000621594459   -0.7200
     11 C11       -12.3779   -2.9069   56.2510 C.2     1  ZINC000621594459    0.5600
     12 O12       -13.0073   -3.5615   55.4431 O.2     1  ZINC000621594459   -0.5200
     13 C13       -12.8419   -2.8173   57.6520 C.ar    1  ZINC000621594459   -0.1500
     14 C14       -13.7216   -3.7735   58.1613 C.ar    1  ZINC000621594459   -0.0300
     15 C15       -14.1504   -3.6844   59.4697 C.ar    1  ZINC000621594459   -0.1400
     16 C16       -13.7106   -2.6499   60.2761 C.ar    1  ZINC000621594459    0.0100
     17 C17       -12.8387   -1.6983   59.7770 C.ar    1  ZINC000621594459   -0.6800
     18 S18       -12.2851   -0.3843   60.8123 S.o2    1  ZINC000621594459    2.7000
     19 O19       -12.0530    0.7282   59.9592 O.2     1  ZINC000621594459   -0.9400
     20 O20       -13.1757   -0.3428   61.9188 O.2     1  ZINC000621594459   -0.9500
     21 N21       -10.8080   -0.8259   61.4171 N.am    1  ZINC000621594459   -1.0900
     22 C22        -9.6946   -1.0981   60.5048 C.3     1  ZINC000621594459    0.0800
     23 C23        -8.5078   -0.1328   60.5310 C.3     1  ZINC000621594459   -0.1800
     24 C24        -8.3655   -1.5362   61.1234 C.3     1  ZINC000621594459   -0.1900
     25 C25       -12.3975   -1.7792   58.4726 C.ar    1  ZINC000621594459    0.0400
     26 H26        -9.9939    2.3145   55.5738 H       1  ZINC000621594459    0.0700
     27 H27       -10.1327    0.5412   55.5093 H       1  ZINC000621594459    0.0700
     28 H28        -8.5534    1.3202   55.2506 H       1  ZINC000621594459    0.0600
     29 H29       -10.9855    1.5770   53.4240 H       1  ZINC000621594459    0.0900
     30 H30        -8.1281    2.6168   53.1576 H       1  ZINC000621594459    0.0700
     31 H31        -9.4043    2.7615   51.9254 H       1  ZINC000621594459    0.0600
     32 H32        -9.5686    3.6112   53.4809 H       1  ZINC000621594459    0.0700
     33 H33        -8.4663    0.0911   52.8999 H       1  ZINC000621594459    0.4200
     34 H34       -11.7941   -0.4545   54.2471 H       1  ZINC000621594459    0.1400
     35 H35       -12.4586   -1.7634   53.2404 H       1  ZINC000621594459    0.1400
     36 H36       -10.9967   -3.3503   54.0954 H       1  ZINC000621594459    0.0900
     37 H37        -9.7276   -2.1503   54.4390 H       1  ZINC000621594459    0.0900
     38 H38       -10.7541   -1.7416   56.5149 H       1  ZINC000621594459    0.4000
     39 H39       -14.0662   -4.5813   57.5327 H       1  ZINC000621594459    0.1300
     40 H40       -14.8312   -4.4237   59.8652 H       1  ZINC000621594459    0.1400
     41 H41       -14.0495   -2.5845   61.2994 H       1  ZINC000621594459    0.1500
     42 H42       -10.6802   -0.9043   62.3755 H       1  ZINC000621594459    0.4200
     43 H43        -9.9697   -1.5320   59.5436 H       1  ZINC000621594459    0.1400
     44 H44        -8.0019    0.0687   59.5867 H       1  ZINC000621594459    0.1100
     45 H45        -8.5555    0.7048   61.2270 H       1  ZINC000621594459    0.1000
     46 H46        -8.3196   -1.6220   62.2090 H       1  ZINC000621594459    0.1000
     47 H47        -7.7661   -2.2582   60.5688 H       1  ZINC000621594459    0.1000
     48 H48       -11.7167   -1.0361   58.0844 H       1  ZINC000621594459    0.1600
@<TRIPOS>BOND
     1     1     2    1
     2     1    26    1
     3     1    27    1
     4     1    28    1
     5     2     3    1
     6     2     4    1
     7     2    29    1
     8     3    30    1
     9     3    31    1
    10     3    32    1
    11     4     5   am
    12     4    33    1
    13     5     6    2
    14     5     7    2
    15     5     8    1
    16     8     9    1
    17     8    34    1
    18     8    35    1
    19     9    10    1
    20     9    36    1
    21     9    37    1
    22    10    11   am
    23    10    38    1
    24    11    12    2
    25    11    13    1
    26    13    25   ar
    27    13    14   ar
    28    14    15   ar
    29    14    39    1
    30    15    16   ar
    31    15    40    1
    32    16    17   ar
    33    16    41    1
    34    17    18    1
    35    17    25   ar
    36    18    19    2
    37    18    20    2
    38    18    21   am
    39    21    22    1
    40    21    42    1
    41    22    24    1
    42    22    23    1
    43    22    43    1
    44    23    24    1
    45    23    44    1
    46    23    45    1
    47    24    46    1
    48    24    47    1
    49    25    48    1
@<TRIPOS>SUBSTRUCTURE
     1 ZINC000621594459        1 TEMP              0 ****  ****    0 ROOT


##########                                Name:    ZINC001087843226
##########                DOCK_Rotatable_Bonds:                   6
##########                         Heavy_Atoms:                  27
##########                    Molecular_Weight:             368.479
##########                DOCK_Rotatable_Bonds:                   6
##########                       Formal_Charge:        -4.47035e-07
##########                     HBond_Acceptors:                   6
##########                        HBond_Donors:                   1
##########                         Heavy_Atoms:                  27
##########                          Grid_Score:          -34.054237
##########                     Grid_vdw_energy:          -32.608860
##########                      Grid_es_energy:           -1.445375
##########           Internal_energy_repulsive:           33.209496

@<TRIPOS>MOLECULE
ZINC001087843226
 55 58 1 0 0
SMALL
USER_CHARGES


@<TRIPOS>ATOM
      1 C1         -8.4063    2.0350   59.5000 C.3     1  ZINC001087843226   -0.1500
      2 C2         -8.2045    1.6200   60.9587 C.3     1  ZINC001087843226   -0.1500
      3 C3         -8.5098    0.1286   61.1116 C.3     1  ZINC001087843226    0.0700
      4 H4         -7.8051   -0.4565   60.5206 H       1  ZINC001087843226    0.1000
      5 C5         -9.9525   -0.1622   60.6475 C.3     1  ZINC001087843226    0.1300
      6 H6        -10.5647    0.7378   60.7051 H       1  ZINC001087843226    0.1000
      7 N7         -9.9595   -0.7050   59.2867 N.am    1  ZINC001087843226   -0.7200
      8 C8        -10.9908   -0.4396   58.4606 C.2     1  ZINC001087843226    0.5600
      9 O9        -11.9158    0.2489   58.8451 O.2     1  ZINC001087843226   -0.5300
     10 C10       -10.9969   -0.9858   57.0868 C.ar    1  ZINC001087843226   -0.1400
     11 C11       -11.4237   -2.2934   56.8573 C.ar    1  ZINC001087843226   -0.0800
     12 C12       -11.4272   -2.7975   55.5729 C.ar    1  ZINC001087843226   -0.1300
     13 C13       -11.0092   -2.0086   54.5178 C.ar    1  ZINC001087843226   -0.0400
     14 C14       -11.0164   -2.5673   53.1181 C.3     1  ZINC001087843226   -0.1200
     15 C15       -10.5836   -0.7072   54.7367 C.ar    1  ZINC001087843226   -0.1100
     16 C16       -10.5802   -0.1901   56.0153 C.ar    1  ZINC001087843226   -0.0300
     17 C17       -10.0758    1.2367   55.9909 C.3     1  ZINC001087843226   -0.0800
     18 C18        -9.3628    1.3894   54.6304 C.3     1  ZINC001087843226   -0.1200
     19 C19       -10.0868    0.3378   53.7603 C.3     1  ZINC001087843226   -0.0800
     20 C20       -10.4406   -1.2239   61.6681 C.3     1  ZINC001087843226   -0.1400
     21 C21        -9.7451   -0.7505   62.9687 C.3     1  ZINC001087843226    0.0400
     22 N22        -8.4173   -0.2595   62.5310 N.3     1  ZINC001087843226   -0.5100
     23 C23        -7.9753    0.8713   63.3581 C.3     1  ZINC001087843226    0.1100
     24 C24        -7.6799    0.3872   64.7543 C.2     1  ZINC001087843226    0.0800
     25 N25        -8.3656   -0.5087   65.3994 N.2     1  ZINC001087843226   -0.2700
     26 O26        -7.7588   -0.6734   66.6711 O.3     1  ZINC001087843226    0.0300
     27 N27        -6.6522    0.2140   66.7046 N.2     1  ZINC001087843226   -0.2800
     28 C28        -6.6138    0.8309   65.5615 C.2     1  ZINC001087843226    0.0900
     29 C29        -5.5941    1.8674   65.1651 C.3     1  ZINC001087843226   -0.0900
     30 H30        -8.2558    3.1103   59.4041 H       1  ZINC001087843226    0.0600
     31 H31        -7.6880    1.5101   58.8703 H       1  ZINC001087843226    0.0600
     32 H32        -9.4187    1.7804   59.1865 H       1  ZINC001087843226    0.0600
     33 H33        -7.1721    1.8114   61.2516 H       1  ZINC001087843226    0.0800
     34 H34        -8.8757    2.1954   61.5964 H       1  ZINC001087843226    0.0700
     35 H35        -9.2218   -1.2553   58.9803 H       1  ZINC001087843226    0.4000
     36 H36       -11.7500   -2.9096   57.6821 H       1  ZINC001087843226    0.1300
     37 H37       -11.7566   -3.8099   55.3919 H       1  ZINC001087843226    0.1300
     38 H38       -11.9804   -2.3652   52.6514 H       1  ZINC001087843226    0.0800
     39 H39       -10.2247   -2.0969   52.5351 H       1  ZINC001087843226    0.0700
     40 H40       -10.8495   -3.6437   53.1558 H       1  ZINC001087843226    0.0700
     41 H41       -10.9105    1.9343   56.0610 H       1  ZINC001087843226    0.0800
     42 H42        -9.3729    1.4034   56.8072 H       1  ZINC001087843226    0.0900
     43 H43        -9.5093    2.3911   54.2264 H       1  ZINC001087843226    0.0800
     44 H44        -8.3015    1.1581   54.7210 H       1  ZINC001087843226    0.0700
     45 H45        -9.3902   -0.1117   53.0526 H       1  ZINC001087843226    0.0800
     46 H46       -10.9224    0.7955   53.2309 H       1  ZINC001087843226    0.0800
     47 H47       -11.5253   -1.1952   61.7726 H       1  ZINC001087843226    0.0800
     48 H48       -10.1033   -2.2211   61.3855 H       1  ZINC001087843226    0.0800
     49 H49       -10.3150    0.0548   63.4324 H       1  ZINC001087843226    0.0600
     50 H50        -9.6304   -1.5834   63.6624 H       1  ZINC001087843226    0.0800
     51 H51        -7.0742    1.3069   62.9264 H       1  ZINC001087843226    0.1200
     52 H52        -8.7621    1.6248   63.3936 H       1  ZINC001087843226    0.0700
     53 H53        -4.7884    1.3898   64.6077 H       1  ZINC001087843226    0.1000
     54 H54        -6.0691    2.6241   64.5407 H       1  ZINC001087843226    0.0900
     55 H55        -5.1875    2.3379   66.0603 H       1  ZINC001087843226    0.0900
@<TRIPOS>BOND
     1     1     2    1
     2     1    30    1
     3     1    31    1
     4     1    32    1
     5     2     3    1
     6     2    33    1
     7     2    34    1
     8     3     4    1
     9     3    22    1
    10     3     5    1
    11     5     6    1
    12     5     7    1
    13     5    20    1
    14     7     8   am
    15     7    35    1
    16     8     9    2
    17     8    10    1
    18    10    16   ar
    19    10    11   ar
    20    11    12   ar
    21    11    36    1
    22    12    13   ar
    23    12    37    1
    24    13    14    1
    25    13    15   ar
    26    14    38    1
    27    14    39    1
    28    14    40    1
    29    15    19    1
    30    15    16   ar
    31    16    17    1
    32    17    18    1
    33    17    41    1
    34    17    42    1
    35    18    19    1
    36    18    43    1
    37    18    44    1
    38    19    45    1
    39    19    46    1
    40    20    21    1
    41    20    47    1
    42    20    48    1
    43    21    22    1
    44    21    49    1
    45    21    50    1
    46    22    23    1
    47    23    24    1
    48    23    51    1
    49    23    52    1
    50    24    28    1
    51    24    25    2
    52    25    26    1
    53    26    27    1
    54    27    28    2
    55    28    29    1
    56    29    53    1
    57    29    54    1
    58    29    55    1
@<TRIPOS>SUBSTRUCTURE
     1 ZINC001087843226        1 TEMP              0 ****  ****    0 ROOT


##########                                Name:    ZINC000914736341
##########                DOCK_Rotatable_Bonds:                   7
##########                         Heavy_Atoms:                  27
##########                    Molecular_Weight:             384.905
##########                DOCK_Rotatable_Bonds:                   7
##########                       Formal_Charge:                0.02
##########                     HBond_Acceptors:                   5
##########                        HBond_Donors:                   1
##########                         Heavy_Atoms:                  27
##########                          Grid_Score:          -33.992573
##########                     Grid_vdw_energy:          -34.065617
##########                      Grid_es_energy:            0.073043
##########           Internal_energy_repulsive:           23.820072

@<TRIPOS>MOLECULE
ZINC000914736341
 52 54 1 0 0
SMALL
USER_CHARGES


@<TRIPOS>ATOM
      1 C1         -3.3084    6.0186   55.1004 C.3     1  ZINC000914736341   -0.1400
      2 C2         -4.5515    5.2015   54.7425 C.3     1  ZINC000914736341   -0.0300
      3 C3         -5.8017    5.9322   55.2361 C.3     1  ZINC000914736341   -0.1400
      4 C4         -4.6280    5.0283   53.2242 C.3     1  ZINC000914736341    0.1300
      5 N5         -3.5864    4.0960   52.7859 N.am    1  ZINC000914736341   -0.7200
      6 C6         -3.1526    4.1216   51.5101 C.2     1  ZINC000914736341    0.5300
      7 O7         -3.6257    4.9153   50.7245 O.2     1  ZINC000914736341   -0.5300
      8 C8         -2.0799    3.1638   51.0596 C.3     1  ZINC000914736341   -0.1200
      9 H9         -2.0120    2.3113   51.7355 H       1  ZINC000914736341    0.1200
     10 C10        -0.7154    3.8804   50.9340 C.3     1  ZINC000914736341   -0.1400
     11 C11        -0.0719    3.2432   49.7222 C.2     1  ZINC000914736341    0.5200
     12 O12         1.1061    3.3154   49.4428 O.2     1  ZINC000914736341   -0.5200
     13 N13        -0.9955    2.5851   49.0007 N.am    1  ZINC000914736341   -0.6100
     14 C14        -0.7096    1.8475   47.7676 C.3     1  ZINC000914736341    0.1600
     15 C15        -0.8464    0.3687   48.0236 C.ar    1  ZINC000914736341   -0.1000
     16 C16        -2.0955   -0.2223   48.0101 C.ar    1  ZINC000914736341   -0.0800
     17 C17        -2.2213   -1.5789   48.2449 C.ar    1  ZINC000914736341   -0.1100
     18 C18        -1.0980   -2.3449   48.4938 C.ar    1  ZINC000914736341   -0.1000
     19 C19         0.1521   -1.7549   48.5075 C.ar    1  ZINC000914736341   -0.1100
     20 C20         0.2791   -0.3986   48.2665 C.ar    1  ZINC000914736341   -0.0300
     21 Cl21        1.8486    0.3431   48.2837 Cl      1  ZINC000914736341   -0.0600
     22 C22        -2.3276    2.6995   49.6073 C.3     1  ZINC000914736341    0.1000
     23 C23        -4.4688    3.8475   55.3990 C.ar    1  ZINC000914736341   -0.0700
     24 C24        -5.5851    3.0339   55.4481 C.ar    1  ZINC000914736341   -0.1200
     25 C25        -5.5093    1.7919   56.0503 C.ar    1  ZINC000914736341   -0.1200
     26 C26        -4.3169    1.3635   56.6032 C.ar    1  ZINC000914736341   -0.1200
     27 C27        -3.2003    2.1769   56.5533 C.ar    1  ZINC000914736341   -0.1200
     28 C28        -3.2750    3.4170   55.9473 C.ar    1  ZINC000914736341   -0.1100
     29 H29        -3.2539    6.1421   56.1821 H       1  ZINC000914736341    0.0600
     30 H30        -2.4177    5.4981   54.7487 H       1  ZINC000914736341    0.0600
     31 H31        -3.3682    6.9979   54.6255 H       1  ZINC000914736341    0.0600
     32 H32        -5.8615    6.9115   54.7612 H       1  ZINC000914736341    0.0600
     33 H33        -6.6873    5.3501   54.9810 H       1  ZINC000914736341    0.0600
     34 H34        -5.7472    6.0557   56.3177 H       1  ZINC000914736341    0.0600
     35 H35        -5.6069    4.6334   52.9524 H       1  ZINC000914736341    0.0700
     36 H36        -4.4786    5.9936   52.7405 H       1  ZINC000914736341    0.0700
     37 H37        -3.2089    3.4604   53.4139 H       1  ZINC000914736341    0.4000
     38 H38        -0.8591    4.9487   50.7722 H       1  ZINC000914736341    0.1100
     39 H39        -0.1099    3.7063   51.8235 H       1  ZINC000914736341    0.1100
     40 H40        -1.4142    2.1488   46.9923 H       1  ZINC000914736341    0.1000
     41 H41         0.3066    2.0671   47.4403 H       1  ZINC000914736341    0.1000
     42 H42        -2.9736    0.3758   47.8164 H       1  ZINC000914736341    0.1400
     43 H43        -3.1977   -2.0404   48.2342 H       1  ZINC000914736341    0.1300
     44 H44        -1.1968   -3.4045   48.6778 H       1  ZINC000914736341    0.1300
     45 H45         1.0298   -2.3534   48.7020 H       1  ZINC000914736341    0.1400
     46 H46        -2.8297    1.7320   49.6000 H       1  ZINC000914736341    0.1000
     47 H47        -2.9236    3.4386   49.0721 H       1  ZINC000914736341    0.0900
     48 H48        -6.5167    3.3686   55.0161 H       1  ZINC000914736341    0.1300
     49 H49        -6.3817    1.1565   56.0893 H       1  ZINC000914736341    0.1200
     50 H50        -4.2578    0.3935   57.0743 H       1  ZINC000914736341    0.1200
     51 H51        -2.2689    1.8423   56.9855 H       1  ZINC000914736341    0.1200
     52 H52        -2.4026    4.0524   55.9082 H       1  ZINC000914736341    0.1200
@<TRIPOS>BOND
     1     1     2    1
     2     1    29    1
     3     1    30    1
     4     1    31    1
     5     2     3    1
     6     2     4    1
     7     2    23    1
     8     3    32    1
     9     3    33    1
    10     3    34    1
    11     4     5    1
    12     4    35    1
    13     4    36    1
    14     5     6   am
    15     5    37    1
    16     6     7    2
    17     6     8    1
    18     8     9    1
    19     8    22    1
    20     8    10    1
    21    10    11    1
    22    10    38    1
    23    10    39    1
    24    11    12    2
    25    11    13   am
    26    13    14    1
    27    13    22    1
    28    14    15    1
    29    14    40    1
    30    14    41    1
    31    15    20   ar
    32    15    16   ar
    33    16    17   ar
    34    16    42    1
    35    17    18   ar
    36    17    43    1
    37    18    19   ar
    38    18    44    1
    39    19    20   ar
    40    19    45    1
    41    20    21    1
    42    22    46    1
    43    22    47    1
    44    23    28   ar
    45    23    24   ar
    46    24    25   ar
    47    24    48    1
    48    25    26   ar
    49    25    49    1
    50    26    27   ar
    51    26    50    1
    52    27    28   ar
    53    27    51    1
    54    28    52    1
@<TRIPOS>SUBSTRUCTURE
     1 ZINC000914736341        1 TEMP              0 ****  ****    0 ROOT


##########                                Name:    ZINC000626935317
##########                DOCK_Rotatable_Bonds:                   6
##########                         Heavy_Atoms:                  25
##########                    Molecular_Weight:             366.441
##########                DOCK_Rotatable_Bonds:                   6
##########                       Formal_Charge:          -0.0200006
##########                     HBond_Acceptors:                   9
##########                        HBond_Donors:                   2
##########                         Heavy_Atoms:                  25
##########                          Grid_Score:          -33.926815
##########                     Grid_vdw_energy:          -30.595364
##########                      Grid_es_energy:           -3.331451
##########           Internal_energy_repulsive:           15.487529

@<TRIPOS>MOLECULE
ZINC000626935317
 47 49 1 0 0
SMALL
USER_CHARGES


@<TRIPOS>ATOM
      1 C1         -1.8996   -1.2509   47.9892 C.3     1  ZINC000626935317    0.0900
      2 N2         -1.6019   -0.5149   46.7579 N.am    1  ZINC000626935317   -0.6200
      3 C3         -2.1087   -0.8196   45.5508 C.2     1  ZINC000626935317    0.5200
      4 O4         -2.8663   -1.7401   45.3278 O.2     1  ZINC000626935317   -0.5200
      5 C5         -1.5970    0.1528   44.5110 C.3     1  ZINC000626935317   -0.1500
      6 C6         -1.0401    1.3344   45.3386 C.3     1  ZINC000626935317   -0.1200
      7 H7         -1.7954    2.1093   45.4694 H       1  ZINC000626935317    0.1200
      8 C8          0.2039    1.8993   44.7026 C.2     1  ZINC000626935317    0.5300
      9 O9          1.1389    1.1705   44.4470 O.2     1  ZINC000626935317   -0.5200
     10 N10         0.2772    3.2147   44.4178 N.am    1  ZINC000626935317   -0.7100
     11 C11         1.4871    3.7642   43.8011 C.3     1  ZINC000626935317    0.1200
     12 C12         1.2426    5.0636   43.0158 C.3     1  ZINC000626935317   -0.1600
     13 C13         1.5070    5.8156   44.3309 C.3     1  ZINC000626935317    0.1200
     14 N14         0.3044    6.0198   45.1422 N.am    1  ZINC000626935317   -1.1100
     15 S15         0.4404    6.5446   46.7069 S.o2    1  ZINC000626935317    2.6100
     16 C16        -1.2709    6.6493   47.2995 C.3     1  ZINC000626935317   -0.6700
     17 O17         1.1341    5.4960   47.3691 O.2     1  ZINC000626935317   -0.9500
     18 O18         1.0091    7.8418   46.5933 O.2     1  ZINC000626935317   -0.9500
     19 C19         2.3443    4.6010   44.7654 C.3     1  ZINC000626935317   -0.1600
     20 C20        -0.7168    0.6535   46.6850 C.3     1  ZINC000626935317    0.2000
     21 H21         0.3246    0.3320   46.7048 H       1  ZINC000626935317    0.1100
     22 C22        -0.9919    1.5982   47.8264 C.ar    1  ZINC000626935317   -0.1600
     23 C23         0.0553    2.1914   48.5146 C.ar    1  ZINC000626935317   -0.0500
     24 C24        -0.2453    3.0543   49.5577 C.ar    1  ZINC000626935317   -0.1700
     25 C25        -1.5690    3.2927   49.8743 C.ar    1  ZINC000626935317    0.1000
     26 N26        -2.5399    2.7105   49.1976 N.ar    1  ZINC000626935317   -0.4800
     27 C27        -2.2915    1.8887   48.1968 C.ar    1  ZINC000626935317    0.1200
     28 H28        -2.7753   -0.8151   48.4702 H       1  ZINC000626935317    0.0600
     29 H29        -2.0990   -2.2953   47.7491 H       1  ZINC000626935317    0.0800
     30 H30        -1.0460   -1.1899   48.6644 H       1  ZINC000626935317    0.0700
     31 H31        -0.8050   -0.3045   43.9182 H       1  ZINC000626935317    0.1100
     32 H32        -2.4112    0.4875   43.8684 H       1  ZINC000626935317    0.1200
     33 H33        -0.4712    3.7974   44.6210 H       1  ZINC000626935317    0.4000
     34 H34         2.0560    3.0179   43.2467 H       1  ZINC000626935317    0.1100
     35 H35         1.9895    5.2553   42.2454 H       1  ZINC000626935317    0.1100
     36 H36         0.2206    5.1676   42.6512 H       1  ZINC000626935317    0.0800
     37 H37         2.0910    6.7270   44.2029 H       1  ZINC000626935317    0.1100
     38 H38        -0.5717    5.8475   44.7628 H       1  ZINC000626935317    0.4100
     39 H39        -1.7372    5.6660   47.2392 H       1  ZINC000626935317    0.1300
     40 H40        -1.2767    6.9913   48.3345 H       1  ZINC000626935317    0.1300
     41 H41        -1.8271    7.3538   46.6810 H       1  ZINC000626935317    0.1300
     42 H42         2.2119    4.3317   45.8133 H       1  ZINC000626935317    0.0900
     43 H43         3.3924    4.6663   44.4733 H       1  ZINC000626935317    0.1100
     44 H44         1.0807    1.9859   48.2450 H       1  ZINC000626935317    0.1400
     45 H45         0.5454    3.5338   50.1158 H       1  ZINC000626935317    0.1400
     46 H46        -1.8115    3.9631   50.6855 H       1  ZINC000626935317    0.1600
     47 H47        -3.1128    1.4306   47.6659 H       1  ZINC000626935317    0.1500
@<TRIPOS>BOND
     1     1     2    1
     2     1    28    1
     3     1    29    1
     4     1    30    1
     5     2    20    1
     6     2     3   am
     7     3     4    2
     8     3     5    1
     9     5     6    1
    10     5    31    1
    11     5    32    1
    12     6     7    1
    13     6     8    1
    14     6    20    1
    15     8     9    2
    16     8    10   am
    17    10    11    1
    18    10    33    1
    19    11    19    1
    20    11    12    1
    21    11    34    1
    22    12    13    1
    23    12    35    1
    24    12    36    1
    25    13    14    1
    26    13    19    1
    27    13    37    1
    28    14    15   am
    29    14    38    1
    30    15    16    1
    31    15    17    2
    32    15    18    2
    33    16    39    1
    34    16    40    1
    35    16    41    1
    36    19    42    1
    37    19    43    1
    38    20    21    1
    39    20    22    1
    40    22    27   ar
    41    22    23   ar
    42    23    24   ar
    43    23    44    1
    44    24    25   ar
    45    24    45    1
    46    25    26   ar
    47    25    46    1
    48    26    27   ar
    49    27    47    1
@<TRIPOS>SUBSTRUCTURE
     1 ZINC000626935317        1 TEMP              0 ****  ****    0 ROOT


##########                                Name:    ZINC000637608314
##########                DOCK_Rotatable_Bonds:                   9
##########                         Heavy_Atoms:                  28
##########                    Molecular_Weight:             387.479
##########                DOCK_Rotatable_Bonds:                   9
##########                       Formal_Charge:           0.0499991
##########                     HBond_Acceptors:                   7
##########                        HBond_Donors:                   2
##########                         Heavy_Atoms:                  28
##########                          Grid_Score:          -33.852501
##########                     Grid_vdw_energy:          -30.047504
##########                      Grid_es_energy:           -3.804996
##########           Internal_energy_repulsive:           19.342722

@<TRIPOS>MOLECULE
ZINC000637608314
 57 59 1 0 0
SMALL
USER_CHARGES


@<TRIPOS>ATOM
      1 C1         -1.3571    0.7737   46.3107 C.3     1  ZINC000637608314   -0.1400
      2 C2         -0.5593    0.5176   47.5909 C.3     1  ZINC000637608314   -0.0400
      3 C3         -0.9155   -0.8628   48.1463 C.3     1  ZINC000637608314   -0.1500
      4 C4          0.9375    0.5709   47.2782 C.3     1  ZINC000637608314   -0.1500
      5 C5         -0.8968    1.5726   48.6127 C.2     1  ZINC000637608314    0.1900
      6 C6         -2.1837    1.7488   48.9932 C.2     1  ZINC000637608314   -0.2400
      7 C7         -2.5048    2.7284   49.9434 C.2     1  ZINC000637608314    0.0200
      8 C8         -1.5088    3.4946   50.4738 C.2     1  ZINC000637608314   -0.2400
      9 C9         -1.8264    4.5542   51.4972 C.3     1  ZINC000637608314    0.2100
     10 N10        -2.1367    3.9174   52.7795 N.am    1  ZINC000637608314   -0.7300
     11 C11        -1.2537    3.9826   53.7956 C.2     1  ZINC000637608314    0.7100
     12 O12        -0.1989    4.5688   53.6476 O.2     1  ZINC000637608314   -0.5900
     13 N13        -1.5400    3.3980   54.9758 N.am    1  ZINC000637608314   -0.6200
     14 C14        -0.5809    3.4705   56.0808 C.3     1  ZINC000637608314    0.2000
     15 C15         0.3569    2.2930   56.0100 C.2     1  ZINC000637608314   -0.0400
     16 C16         1.1697    1.8742   56.9966 C.2     1  ZINC000637608314   -0.1900
     17 C17         1.8660    0.7470   56.5030 C.2     1  ZINC000637608314   -0.2200
     18 C18         1.4370    0.5443   55.2443 C.2     1  ZINC000637608314   -0.0300
     19 O19         0.5189    1.4803   54.9531 O.3     1  ZINC000637608314   -0.1700
     20 C20        -2.8102    2.6901   55.1535 C.3     1  ZINC000637608314    0.1300
     21 C21        -3.4443    3.1059   56.4823 C.3     1  ZINC000637608314    0.0700
     22 H22        -2.8523    2.7186   57.3115 H       1  ZINC000637608314    0.0900
     23 C23        -4.8859    2.5603   56.5682 C.3     1  ZINC000637608314   -0.1500
     24 C24        -5.6438    3.7363   57.2424 C.3     1  ZINC000637608314   -0.1600
     25 C25        -4.8884    4.9519   56.6488 C.3     1  ZINC000637608314    0.0500
     26 O26        -3.5148    4.5344   56.5612 O.3     1  ZINC000637608314   -0.3800
     27 C27        -0.1833    3.2851   50.0563 C.2     1  ZINC000637608314    0.5300
     28 O28         0.7177    3.9635   50.5233 O.2     1  ZINC000637608314   -0.5400
     29 N29         0.0939    2.3325   49.1459 N.am    1  ZINC000637608314   -0.6000
     30 H30        -2.4235    0.7357   46.5334 H       1  ZINC000637608314    0.0700
     31 H31        -1.1033    1.7571   45.9151 H       1  ZINC000637608314    0.0700
     32 H32        -1.1129    0.0106   45.5717 H       1  ZINC000637608314    0.0700
     33 H33        -0.6713   -1.6258   47.4073 H       1  ZINC000637608314    0.0700
     34 H34        -0.3470   -1.0453   49.0583 H       1  ZINC000637608314    0.0600
     35 H35        -1.9818   -0.9007   48.3691 H       1  ZINC000637608314    0.0700
     36 H36         1.1913    1.5543   46.8825 H       1  ZINC000637608314    0.0700
     37 H37         1.5059    0.3885   48.1902 H       1  ZINC000637608314    0.0600
     38 H38         1.1816   -0.1922   46.5391 H       1  ZINC000637608314    0.0700
     39 H39        -2.9627    1.1354   48.5650 H       1  ZINC000637608314    0.1500
     40 H40        -3.5295    2.8749   50.2516 H       1  ZINC000637608314    0.1400
     41 H41        -0.9660    5.2126   51.6174 H       1  ZINC000637608314    0.0800
     42 H42        -2.6854    5.1361   51.1632 H       1  ZINC000637608314    0.0800
     43 H43        -2.9779    3.4486   52.8972 H       1  ZINC000637608314    0.4000
     44 H44        -0.0091    4.3954   56.0058 H       1  ZINC000637608314    0.1200
     45 H45        -1.1174    3.4510   57.0294 H       1  ZINC000637608314    0.0900
     46 H46         1.2713    2.3148   57.9774 H       1  ZINC000637608314    0.1500
     47 H47         2.6013    0.1613   57.0345 H       1  ZINC000637608314    0.1500
     48 H48         1.7713   -0.2402   54.5818 H       1  ZINC000637608314    0.2000
     49 H49        -3.4842    2.9422   54.3347 H       1  ZINC000637608314    0.0800
     50 H50        -2.6296    1.6152   55.1576 H       1  ZINC000637608314    0.1000
     51 H51        -5.2850    2.3608   55.5737 H       1  ZINC000637608314    0.0800
     52 H52        -4.9258    1.6658   57.1899 H       1  ZINC000637608314    0.0900
     53 H53        -6.6940    3.7456   56.9504 H       1  ZINC000637608314    0.0800
     54 H54        -5.5398    3.7004   58.3268 H       1  ZINC000637608314    0.0800
     55 H55        -5.2757    5.1912   55.6584 H       1  ZINC000637608314    0.0600
     56 H56        -4.9795    5.8137   57.3100 H       1  ZINC000637608314    0.0800
     57 H57         1.0109    2.1926   48.8622 H       1  ZINC000637608314    0.4100
@<TRIPOS>BOND
     1     1     2    1
     2     1    30    1
     3     1    31    1
     4     1    32    1
     5     2     3    1
     6     2     4    1
     7     2     5    1
     8     3    33    1
     9     3    34    1
    10     3    35    1
    11     4    36    1
    12     4    37    1
    13     4    38    1
    14     5    29    1
    15     5     6    2
    16     6     7    1
    17     6    39    1
    18     7     8    2
    19     7    40    1
    20     8     9    1
    21     8    27    1
    22     9    10    1
    23     9    41    1
    24     9    42    1
    25    10    11   am
    26    10    43    1
    27    11    12    2
    28    11    13   am
    29    13    14    1
    30    13    20    1
    31    14    15    1
    32    14    44    1
    33    14    45    1
    34    15    19    1
    35    15    16    2
    36    16    17    1
    37    16    46    1
    38    17    18    2
    39    17    47    1
    40    18    19    1
    41    18    48    1
    42    20    21    1
    43    20    49    1
    44    20    50    1
    45    21    22    1
    46    21    26    1
    47    21    23    1
    48    23    24    1
    49    23    51    1
    50    23    52    1
    51    24    25    1
    52    24    53    1
    53    24    54    1
    54    25    26    1
    55    25    55    1
    56    25    56    1
    57    27    28    2
    58    27    29   am
    59    29    57    1
@<TRIPOS>SUBSTRUCTURE
     1 ZINC000637608314        1 TEMP              0 ****  ****    0 ROOT


##########                                Name:    ZINC000457806032
##########                DOCK_Rotatable_Bonds:                   8
##########                         Heavy_Atoms:                  24
##########                    Molecular_Weight:             387.911
##########                DOCK_Rotatable_Bonds:                   8
##########                       Formal_Charge:        -1.49012e-07
##########                     HBond_Acceptors:                   9
##########                        HBond_Donors:                   2
##########                         Heavy_Atoms:                  24
##########                          Grid_Score:          -33.801418
##########                     Grid_vdw_energy:          -33.181194
##########                      Grid_es_energy:           -0.620224
##########           Internal_energy_repulsive:           15.476537

@<TRIPOS>MOLECULE
ZINC000457806032
 42 43 1 0 0
SMALL
USER_CHARGES


@<TRIPOS>ATOM
      1 C1          0.7982   -0.0618   48.0770 C.3     1  ZINC000457806032    0.0800
      2 N2         -0.5090   -0.7221   48.0375 N.am    1  ZINC000457806032   -1.0100
      3 C3         -0.6083   -2.1648   48.2721 C.3     1  ZINC000457806032    0.0900
      4 S4         -1.8744    0.1623   47.7278 S.o2    1  ZINC000457806032    2.7900
      5 O5         -1.6312    0.8648   46.5168 O.2     1  ZINC000457806032   -0.9700
      6 O6         -2.9735   -0.7204   47.9071 O.2     1  ZINC000457806032   -0.9700
      7 N7         -1.9962    1.3083   48.9170 N.am    1  ZINC000457806032   -1.1300
      8 C8         -0.9270    2.2935   49.0972 C.3     1  ZINC000457806032    0.1100
      9 C9         -1.4964    3.5484   49.7617 C.3     1  ZINC000457806032    0.1100
     10 N10        -1.8648    3.2434   51.1464 N.am    1  ZINC000457806032   -0.7300
     11 C11        -1.0981    3.6887   52.1615 C.2     1  ZINC000457806032    0.5800
     12 O12        -0.1011    4.3451   51.9279 O.2     1  ZINC000457806032   -0.5300
     13 C13        -1.4675    3.3806   53.5531 C.2     1  ZINC000457806032   -0.1500
     14 C14        -0.5513    3.0721   54.5130 C.2     1  ZINC000457806032   -0.2200
     15 S15        -1.3244    2.7729   56.0040 S.3     1  ZINC000457806032    0.2400
     16 C16        -2.9094    3.0720   55.3078 C.2     1  ZINC000457806032   -0.1700
     17 C17        -4.1886    2.9973   56.0462 C.ar    1  ZINC000457806032   -0.0100
     18 C18        -4.8179    4.1658   56.4771 C.ar    1  ZINC000457806032   -0.0900
     19 C19        -6.0109    4.0900   57.1656 C.ar    1  ZINC000457806032   -0.1000
     20 C20        -6.5838    2.8573   57.4295 C.ar    1  ZINC000457806032   -0.0300
     21 Cl21       -8.0850    2.7696   58.2968 Cl      1  ZINC000457806032   -0.0600
     22 C22        -5.9642    1.6944   57.0041 C.ar    1  ZINC000457806032   -0.1000
     23 C23        -4.7738    1.7582   56.3098 C.ar    1  ZINC000457806032   -0.1000
     24 C24        -2.7871    3.3844   54.0079 C.2     1  ZINC000457806032   -0.0700
     25 H25         1.2395   -0.0697   47.0803 H       1  ZINC000457806032    0.0600
     26 H26         0.6750    0.9683   48.4116 H       1  ZINC000457806032    0.0800
     27 H27         1.4527   -0.5926   48.7684 H       1  ZINC000457806032    0.0800
     28 H28        -0.7499   -2.3509   49.3367 H       1  ZINC000457806032    0.0600
     29 H29        -1.4564   -2.5656   47.7171 H       1  ZINC000457806032    0.0700
     30 H30         0.3078   -2.6513   47.9371 H       1  ZINC000457806032    0.0700
     31 H31        -2.7755    1.3274   49.4941 H       1  ZINC000457806032    0.4200
     32 H32        -0.1459    1.8705   49.7289 H       1  ZINC000457806032    0.0700
     33 H33        -0.5067    2.5553   48.1261 H       1  ZINC000457806032    0.0900
     34 H34        -0.7449    4.3379   49.7511 H       1  ZINC000457806032    0.0800
     35 H35        -2.3794    3.8800   49.2153 H       1  ZINC000457806032    0.0800
     36 H36        -2.6606    2.7210   51.3327 H       1  ZINC000457806032    0.4000
     37 H37         0.5156    3.0237   54.3524 H       1  ZINC000457806032    0.1700
     38 H38        -4.3716    5.1278   56.2724 H       1  ZINC000457806032    0.1400
     39 H39        -6.4989    4.9937   57.4995 H       1  ZINC000457806032    0.1400
     40 H40        -6.4157    0.7358   57.2129 H       1  ZINC000457806032    0.1400
     41 H41        -4.2916    0.8505   55.9781 H       1  ZINC000457806032    0.1300
     42 H42        -3.6308    3.6093   53.3722 H       1  ZINC000457806032    0.1600
@<TRIPOS>BOND
     1     1     2    1
     2     1    25    1
     3     1    26    1
     4     1    27    1
     5     2     3    1
     6     2     4   am
     7     3    28    1
     8     3    29    1
     9     3    30    1
    10     4     5    2
    11     4     6    2
    12     4     7   am
    13     7     8    1
    14     7    31    1
    15     8     9    1
    16     8    32    1
    17     8    33    1
    18     9    10    1
    19     9    34    1
    20     9    35    1
    21    10    11   am
    22    10    36    1
    23    11    12    2
    24    11    13    1
    25    13    24    1
    26    13    14    2
    27    14    15    1
    28    14    37    1
    29    15    16    1
    30    16    17    1
    31    16    24    2
    32    17    23   ar
    33    17    18   ar
    34    18    19   ar
    35    18    38    1
    36    19    20   ar
    37    19    39    1
    38    20    21    1
    39    20    22   ar
    40    22    23   ar
    41    22    40    1
    42    23    41    1
    43    24    42    1
@<TRIPOS>SUBSTRUCTURE
     1 ZINC000457806032        1 TEMP              0 ****  ****    0 ROOT


##########                                Name:    ZINC001041713551
##########                DOCK_Rotatable_Bonds:                  10
##########                         Heavy_Atoms:                  22
##########                    Molecular_Weight:             330.448
##########                DOCK_Rotatable_Bonds:                  10
##########                       Formal_Charge:          -0.0100006
##########                     HBond_Acceptors:                   7
##########                        HBond_Donors:                   2
##########                         Heavy_Atoms:                  22
##########                          Grid_Score:          -33.745613
##########                     Grid_vdw_energy:          -30.147240
##########                      Grid_es_energy:           -3.598372
##########           Internal_energy_repulsive:            7.633180

@<TRIPOS>MOLECULE
ZINC001041713551
 48 49 1 0 0
SMALL
USER_CHARGES


@<TRIPOS>ATOM
      1 C1        -10.3467    1.2798   52.3098 C.3     1  ZINC001041713551   -0.1500
      2 C2         -9.4758    0.6238   53.3833 C.3     1  ZINC001041713551   -0.1100
      3 C3         -8.5301    1.6676   53.9807 C.3     1  ZINC001041713551   -0.1000
      4 S4         -7.4715    2.3438   52.6721 S.3     1  ZINC001041713551   -0.1800
      5 C5         -6.5075    3.6112   53.5410 C.3     1  ZINC001041713551   -0.1300
      6 C6         -5.5493    4.2623   52.5772 C.2     1  ZINC001041713551    0.5300
      7 O7         -5.9069    5.2148   51.9170 O.2     1  ZINC001041713551   -0.5100
      8 N8         -4.2951    3.7860   52.4487 N.am    1  ZINC001041713551   -0.7300
      9 C9         -3.3631    4.4200   51.5129 C.3     1  ZINC001041713551    0.1000
     10 C10        -2.2478    3.4347   51.1577 C.3     1  ZINC001041713551    0.0900
     11 O11        -1.9294    2.5440   52.2288 O.3     1  ZINC001041713551   -0.5200
     12 C12        -2.4500    2.7318   49.8031 C.3     1  ZINC001041713551    0.0900
     13 N13        -1.0068    2.9516   49.5872 N.am    1  ZINC001041713551   -0.6400
     14 C14        -0.0605    2.3477   48.8411 C.2     1  ZINC001041713551    0.5500
     15 O15         1.0810    2.7567   48.8624 O.2     1  ZINC001041713551   -0.5100
     16 C16        -0.4210    1.1643   47.9806 C.3     1  ZINC001041713551    0.0800
     17 H17         0.4897    0.6872   47.6185 H       1  ZINC001041713551    0.0800
     18 C18        -1.2586    1.6358   46.7890 C.3     1  ZINC001041713551   -0.1500
     19 C19        -1.6715    0.4209   45.9524 C.3     1  ZINC001041713551   -0.1200
     20 C20        -2.4328   -0.5645   46.8445 C.3     1  ZINC001041713551   -0.1600
     21 C21        -1.5499   -0.9510   48.0338 C.3     1  ZINC001041713551    0.0600
     22 O22        -1.1761    0.2271   48.7510 O.3     1  ZINC001041713551   -0.3600
     23 C23        -1.0157    4.0982   50.5162 C.3     1  ZINC001041713551    0.1200
     24 H24        -9.7102    1.6858   51.5236 H       1  ZINC001041713551    0.0600
     25 H25       -11.0205    0.5362   51.8842 H       1  ZINC001041713551    0.0600
     26 H26       -10.9299    2.0848   52.7570 H       1  ZINC001041713551    0.0600
     27 H27       -10.1124    0.2179   54.1695 H       1  ZINC001041713551    0.0700
     28 H28        -8.8927   -0.1812   52.9360 H       1  ZINC001041713551    0.0700
     29 H29        -9.1132    2.4723   54.4285 H       1  ZINC001041713551    0.0800
     30 H30        -7.9092    1.2001   54.7450 H       1  ZINC001041713551    0.0800
     31 H31        -7.1817    4.3649   53.9480 H       1  ZINC001041713551    0.1100
     32 H32        -5.9473    3.1482   54.3533 H       1  ZINC001041713551    0.1100
     33 H33        -4.0095    3.0234   52.9757 H       1  ZINC001041713551    0.4000
     34 H34        -3.8969    4.7068   50.6068 H       1  ZINC001041713551    0.0900
     35 H35        -2.9305    5.3070   51.9758 H       1  ZINC001041713551    0.0900
     36 H36        -2.7030    2.1752   52.6768 H       1  ZINC001041713551    0.3800
     37 H37        -2.7262    1.6809   49.8903 H       1  ZINC001041713551    0.0900
     38 H38        -3.0867    3.2842   49.1121 H       1  ZINC001041713551    0.1000
     39 H39        -2.1498    2.1490   47.1504 H       1  ZINC001041713551    0.0800
     40 H40        -0.6685    2.3169   46.1757 H       1  ZINC001041713551    0.0800
     41 H41        -2.3148    0.7436   45.1337 H       1  ZINC001041713551    0.0700
     42 H42        -0.7822   -0.0639   45.5498 H       1  ZINC001041713551    0.0700
     43 H43        -3.3476   -0.0958   47.2071 H       1  ZINC001041713551    0.0700
     44 H44        -2.6825   -1.4571   46.2708 H       1  ZINC001041713551    0.0800
     45 H45        -2.1023   -1.6190   48.6948 H       1  ZINC001041713551    0.1000
     46 H46        -0.6540   -1.4560   47.6726 H       1  ZINC001041713551    0.0500
     47 H47        -1.2311    5.0521   50.0347 H       1  ZINC001041713551    0.1100
     48 H48        -0.1466    4.1384   51.1729 H       1  ZINC001041713551    0.1000
@<TRIPOS>BOND
     1     1     2    1
     2     1    24    1
     3     1    25    1
     4     1    26    1
     5     2     3    1
     6     2    27    1
     7     2    28    1
     8     3     4    1
     9     3    29    1
    10     3    30    1
    11     4     5    1
    12     5     6    1
    13     5    31    1
    14     5    32    1
    15     6     7    2
    16     6     8   am
    17     8     9    1
    18     8    33    1
    19     9    10    1
    20     9    34    1
    21     9    35    1
    22    10    23    1
    23    10    11    1
    24    10    12    1
    25    11    36    1
    26    12    13    1
    27    12    37    1
    28    12    38    1
    29    13    14   am
    30    13    23    1
    31    14    15    2
    32    14    16    1
    33    16    17    1
    34    16    22    1
    35    16    18    1
    36    18    19    1
    37    18    39    1
    38    18    40    1
    39    19    20    1
    40    19    41    1
    41    19    42    1
    42    20    21    1
    43    20    43    1
    44    20    44    1
    45    21    22    1
    46    21    45    1
    47    21    46    1
    48    23    47    1
    49    23    48    1
@<TRIPOS>SUBSTRUCTURE
     1 ZINC001041713551        1 TEMP              0 ****  ****    0 ROOT


##########                                Name:    ZINC001191196975
##########                DOCK_Rotatable_Bonds:                  14
##########                         Heavy_Atoms:                  24
##########                    Molecular_Weight:             339.438
##########                DOCK_Rotatable_Bonds:                  14
##########                       Formal_Charge:          0.00999969
##########                     HBond_Acceptors:                   8
##########                        HBond_Donors:                   4
##########                         Heavy_Atoms:                  24
##########                          Grid_Score:          -33.728966
##########                     Grid_vdw_energy:          -29.644051
##########                      Grid_es_energy:           -4.084916
##########           Internal_energy_repulsive:           14.304448

@<TRIPOS>MOLECULE
ZINC001191196975
 53 53 1 0 0
SMALL
USER_CHARGES


@<TRIPOS>ATOM
      1 C1         -1.5766    6.9542   46.7008 C.2     1  ZINC001191196975   -0.1600
      2 C2         -0.2832    6.9095   46.4983 C.2     1  ZINC001191196975   -0.1800
      3 C3          0.2548    6.6895   45.1079 C.3     1  ZINC001191196975    0.1500
      4 N4          0.5175    5.2625   44.9059 N.am    1  ZINC001191196975   -0.7300
      5 C5          1.6140    4.6960   45.4472 C.2     1  ZINC001191196975    0.5100
      6 O6          2.3825    5.3671   46.1027 O.2     1  ZINC001191196975   -0.5200
      7 C7          1.8851    3.2284   45.2379 C.3     1  ZINC001191196975    0.0300
      8 N8          0.7103    2.5964   44.6226 N.3     1  ZINC001191196975   -0.5100
      9 C9          1.0837    1.8638   43.4052 C.3     1  ZINC001191196975    0.0200
     10 C10         0.0256    1.7152   45.5780 C.3     1  ZINC001191196975    0.0700
     11 H11         0.7073    0.9585   45.9661 H       1  ZINC001191196975    0.0600
     12 C12        -1.2242    1.0600   44.9331 C.3     1  ZINC001191196975   -0.1200
     13 C13        -2.1342    0.7816   46.1480 C.3     1  ZINC001191196975    0.1000
     14 N14        -1.7151    1.6907   47.2247 N.am    1  ZINC001191196975   -0.6200
     15 C15        -2.2508    1.7446   48.4603 C.2     1  ZINC001191196975    0.5300
     16 O16        -3.1590    0.9990   48.7605 O.2     1  ZINC001191196975   -0.5400
     17 C17        -1.7213    2.7313   49.4687 C.3     1  ZINC001191196975   -0.1300
     18 C18        -2.7592    2.9381   50.5736 C.3     1  ZINC001191196975   -0.1000
     19 C19        -2.4265    4.2112   51.3542 C.3     1  ZINC001191196975   -0.1300
     20 C20        -1.2549    3.9383   52.2996 C.3     1  ZINC001191196975    0.1400
     21 N21        -1.7076    3.0925   53.4068 N.am    1  ZINC001191196975   -0.7500
     22 C22        -1.0842    3.1538   54.6002 C.2     1  ZINC001191196975    0.7000
     23 N23        -1.5018    2.3769   55.6192 N.am    1  ZINC001191196975   -0.8700
     24 O24        -0.1453    3.9101   54.7574 O.2     1  ZINC001191196975   -0.5900
     25 C25        -0.6102    2.5329   46.7299 C.3     1  ZINC001191196975    0.1100
     26 H26        -2.2575    6.8333   45.8712 H       1  ZINC001191196975    0.1000
     27 H27        -1.9621    7.1074   47.6979 H       1  ZINC001191196975    0.1000
     28 H28         0.3978    7.0305   47.3279 H       1  ZINC001191196975    0.1200
     29 H29        -0.4777    7.0312   44.3767 H       1  ZINC001191196975    0.0800
     30 H30         1.1810    7.2506   44.9838 H       1  ZINC001191196975    0.0700
     31 H31        -0.0978    4.7255   44.3825 H       1  ZINC001191196975    0.4000
     32 H32         2.7475    3.1081   44.5822 H       1  ZINC001191196975    0.0700
     33 H33         2.0903    2.7561   46.1985 H       1  ZINC001191196975    0.1100
     34 H34         1.8863    1.1628   43.6347 H       1  ZINC001191196975    0.0200
     35 H35         0.2188    1.3161   43.0311 H       1  ZINC001191196975    0.0700
     36 H36         1.4231    2.5690   42.6465 H       1  ZINC001191196975    0.0900
     37 H37        -1.7065    1.7490   44.2397 H       1  ZINC001191196975    0.0900
     38 H38        -0.9564    0.1304   44.4308 H       1  ZINC001191196975    0.0800
     39 H39        -3.1741    0.9741   45.8840 H       1  ZINC001191196975    0.0700
     40 H40        -2.0167   -0.2532   46.4698 H       1  ZINC001191196975    0.0700
     41 H41        -0.7990    2.3463   49.9040 H       1  ZINC001191196975    0.0900
     42 H42        -1.5210    3.6826   48.9758 H       1  ZINC001191196975    0.0900
     43 H43        -3.7496    3.0332   50.1285 H       1  ZINC001191196975    0.0800
     44 H44        -2.7454    2.0832   51.2498 H       1  ZINC001191196975    0.0800
     45 H45        -2.1540    5.0038   50.6573 H       1  ZINC001191196975    0.0700
     46 H46        -3.2966    4.5200   51.9335 H       1  ZINC001191196975    0.0700
     47 H47        -0.4597    3.4293   51.7552 H       1  ZINC001191196975    0.0700
     48 H48        -0.8788    4.8824   52.6939 H       1  ZINC001191196975    0.0700
     49 H49        -2.4560    2.4883   53.2810 H       1  ZINC001191196975    0.4000
     50 H50        -1.0524    2.4201   56.4778 H       1  ZINC001191196975    0.4000
     51 H51        -2.2516    1.7744   55.4941 H       1  ZINC001191196975    0.4200
     52 H52         0.1190    2.7055   47.5214 H       1  ZINC001191196975    0.0800
     53 H53        -0.9949    3.4809   46.3540 H       1  ZINC001191196975    0.0800
@<TRIPOS>BOND
     1     1     2    2
     2     1    26    1
     3     1    27    1
     4     2     3    1
     5     2    28    1
     6     3     4    1
     7     3    29    1
     8     3    30    1
     9     4     5   am
    10     4    31    1
    11     5     6    2
    12     5     7    1
    13     7     8    1
    14     7    32    1
    15     7    33    1
    16     8     9    1
    17     8    10    1
    18     9    34    1
    19     9    35    1
    20     9    36    1
    21    10    11    1
    22    10    25    1
    23    10    12    1
    24    12    13    1
    25    12    37    1
    26    12    38    1
    27    13    14    1
    28    13    39    1
    29    13    40    1
    30    14    15   am
    31    14    25    1
    32    15    16    2
    33    15    17    1
    34    17    18    1
    35    17    41    1
    36    17    42    1
    37    18    19    1
    38    18    43    1
    39    18    44    1
    40    19    20    1
    41    19    45    1
    42    19    46    1
    43    20    21    1
    44    20    47    1
    45    20    48    1
    46    21    22   am
    47    21    49    1
    48    22    23   am
    49    22    24    2
    50    23    50    1
    51    23    51    1
    52    25    52    1
    53    25    53    1
@<TRIPOS>SUBSTRUCTURE
     1 ZINC001191196975        1 TEMP              0 ****  ****    0 ROOT


##########                                Name:    ZINC000027473870
##########                DOCK_Rotatable_Bonds:                  10
##########                         Heavy_Atoms:                  31
##########                    Molecular_Weight:             422.502
##########                DOCK_Rotatable_Bonds:                  10
##########                       Formal_Charge:        -7.45058e-08
##########                     HBond_Acceptors:                   7
##########                        HBond_Donors:                   1
##########                         Heavy_Atoms:                  31
##########                          Grid_Score:          -33.728790
##########                     Grid_vdw_energy:          -31.805552
##########                      Grid_es_energy:           -1.923238
##########           Internal_energy_repulsive:           16.048025

@<TRIPOS>MOLECULE
ZINC000027473870
 58 60 1 0 0
SMALL
USER_CHARGES


@<TRIPOS>ATOM
      1 C1          0.1620    4.1984   50.1631 C.3     1  ZINC000027473870   -0.1400
      2 C2         -0.5874    3.9906   48.8455 C.3     1  ZINC000027473870   -0.0800
      3 C3         -1.4911    2.7907   48.9653 C.2     1  ZINC000027473870    0.1700
      4 C4         -2.6102    2.6868   49.7673 C.2     1  ZINC000027473870   -0.2900
      5 C5         -3.1434    3.7278   50.6646 C.2     1  ZINC000027473870    0.6000
      6 O6         -3.1760    4.8871   50.2990 O.2     1  ZINC000027473870   -0.5400
      7 N7         -3.5947    3.3947   51.8900 N.am    1  ZINC000027473870   -0.7200
      8 C8         -4.1230    4.4295   52.7824 C.3     1  ZINC000027473870    0.1600
      9 C9         -4.7624    3.7795   53.9823 C.ar    1  ZINC000027473870   -0.0900
     10 C10        -4.1329    3.8355   55.2131 C.ar    1  ZINC000027473870   -0.1100
     11 C11        -4.7126    3.2422   56.3154 C.ar    1  ZINC000027473870   -0.1100
     12 C12        -5.9370    2.5846   56.1870 C.ar    1  ZINC000027473870   -0.1200
     13 C13        -6.5643    1.9468   57.3642 C.2     1  ZINC000027473870    0.5600
     14 O14        -6.4985    0.7419   57.5097 O.2     1  ZINC000027473870   -0.5300
     15 N15        -7.2091    2.7015   58.2759 N.am    1  ZINC000027473870   -0.6100
     16 C16        -7.8307    2.0696   59.4422 C.3     1  ZINC000027473870    0.1100
     17 C17        -9.0858    1.3126   59.0037 C.3     1  ZINC000027473870   -0.1700
     18 C18        -7.2884    4.1538   58.1004 C.3     1  ZINC000027473870    0.0900
     19 C19        -8.4304    4.4898   57.1393 C.3     1  ZINC000027473870   -0.1800
     20 C20        -6.5670    2.5321   54.9426 C.ar    1  ZINC000027473870   -0.0700
     21 C21        -5.9790    3.1342   53.8494 C.ar    1  ZINC000027473870   -0.1000
     22 C22        -3.1492    1.3959   49.5667 C.2     1  ZINC000027473870    0.0900
     23 N23        -2.3974    0.7736   48.7006 N.2     1  ZINC000027473870   -0.2800
     24 N24        -1.3595    1.6254   48.3062 N.pl3   1  ZINC000027473870   -0.3100
     25 C25        -0.3478    1.3135   47.3868 C.ar    1  ZINC000027473870    0.1300
     26 C26        -0.5698    1.4792   46.0264 C.ar    1  ZINC000027473870   -0.0900
     27 C27         0.4280    1.1719   45.1224 C.ar    1  ZINC000027473870   -0.1300
     28 C28         1.6493    0.6988   45.5721 C.ar    1  ZINC000027473870    0.1100
     29 F29         2.6245    0.3990   44.6864 F       1  ZINC000027473870   -0.1300
     30 C30         1.8726    0.5328   46.9289 C.ar    1  ZINC000027473870   -0.1400
     31 C31         0.8790    0.8439   47.8361 C.ar    1  ZINC000027473870   -0.0700
     32 H32         0.8793    5.0111   50.0490 H       1  ZINC000027473870    0.0700
     33 H33        -0.5492    4.4493   50.9499 H       1  ZINC000027473870    0.0700
     34 H34         0.6899    3.2825   50.4291 H       1  ZINC000027473870    0.0500
     35 H35        -1.1850    4.8749   48.6241 H       1  ZINC000027473870    0.1200
     36 H36         0.1301    3.8264   48.0415 H       1  ZINC000027473870    0.0800
     37 H37        -3.5698    2.4697   52.1812 H       1  ZINC000027473870    0.4000
     38 H38        -3.3094    5.0766   53.1101 H       1  ZINC000027473870    0.0800
     39 H39        -4.8671    5.0225   52.2507 H       1  ZINC000027473870    0.0800
     40 H40        -3.1855    4.3446   55.3111 H       1  ZINC000027473870    0.1300
     41 H41        -4.2199    3.2860   57.2755 H       1  ZINC000027473870    0.1500
     42 H42        -7.1262    1.3727   59.8965 H       1  ZINC000027473870    0.0800
     43 H43        -8.1033    2.8355   60.1683 H       1  ZINC000027473870    0.0800
     44 H44        -9.5483    0.8424   59.8715 H       1  ZINC000027473870    0.0700
     45 H45        -9.7903    2.0094   58.5495 H       1  ZINC000027473870    0.0600
     46 H46        -8.8131    0.5466   58.2777 H       1  ZINC000027473870    0.0600
     47 H47        -7.4741    4.6267   59.0647 H       1  ZINC000027473870    0.0800
     48 H48        -6.3480    4.5221   57.6901 H       1  ZINC000027473870    0.0900
     49 H49        -8.3337    5.5234   56.8073 H       1  ZINC000027473870    0.0700
     50 H50        -8.3866    3.8254   56.2764 H       1  ZINC000027473870    0.0700
     51 H51        -9.3849    4.3600   57.6496 H       1  ZINC000027473870    0.0600
     52 H52        -7.5143    2.0245   54.8365 H       1  ZINC000027473870    0.1300
     53 H53        -6.4655    3.0946   52.8859 H       1  ZINC000027473870    0.1300
     54 H54        -4.0293    0.9943   50.0469 H       1  ZINC000027473870    0.1900
     55 H55        -1.5222    1.8479   45.6751 H       1  ZINC000027473870    0.1500
     56 H56         0.2556    1.3004   44.0640 H       1  ZINC000027473870    0.1500
     57 H57         2.8256    0.1633   47.2777 H       1  ZINC000027473870    0.1500
     58 H58         1.0536    0.7147   48.8941 H       1  ZINC000027473870    0.1400
@<TRIPOS>BOND
     1     1     2    1
     2     1    32    1
     3     1    33    1
     4     1    34    1
     5     2     3    1
     6     2    35    1
     7     2    36    1
     8     3    24    1
     9     3     4    2
    10     4     5    1
    11     4    22    1
    12     5     6    2
    13     5     7   am
    14     7     8    1
    15     7    37    1
    16     8     9    1
    17     8    38    1
    18     8    39    1
    19     9    21   ar
    20     9    10   ar
    21    10    11   ar
    22    10    40    1
    23    11    12   ar
    24    11    41    1
    25    12    13    1
    26    12    20   ar
    27    13    14    2
    28    13    15   am
    29    15    16    1
    30    15    18    1
    31    16    17    1
    32    16    42    1
    33    16    43    1
    34    17    44    1
    35    17    45    1
    36    17    46    1
    37    18    19    1
    38    18    47    1
    39    18    48    1
    40    19    49    1
    41    19    50    1
    42    19    51    1
    43    20    21   ar
    44    20    52    1
    45    21    53    1
    46    22    23    2
    47    22    54    1
    48    23    24    1
    49    24    25    1
    50    25    31   ar
    51    25    26   ar
    52    26    27   ar
    53    26    55    1
    54    27    28   ar
    55    27    56    1
    56    28    29    1
    57    28    30   ar
    58    30    31   ar
    59    30    57    1
    60    31    58    1
@<TRIPOS>SUBSTRUCTURE
     1 ZINC000027473870        1 TEMP              0 ****  ****    0 ROOT


##########                                Name:    ZINC001127302705
##########                DOCK_Rotatable_Bonds:                   9
##########                         Heavy_Atoms:                  28
##########                    Molecular_Weight:             398.892
##########                DOCK_Rotatable_Bonds:                   9
##########                       Formal_Charge:          -0.0200002
##########                     HBond_Acceptors:                   7
##########                        HBond_Donors:                   1
##########                         Heavy_Atoms:                  28
##########                          Grid_Score:          -33.697811
##########                     Grid_vdw_energy:          -33.013073
##########                      Grid_es_energy:           -0.684740
##########           Internal_energy_repulsive:           28.133890

@<TRIPOS>MOLECULE
ZINC001127302705
 51 53 1 0 0
SMALL
USER_CHARGES


@<TRIPOS>ATOM
      1 C1         -8.3585   -1.7611   60.8313 C.3     1  ZINC001127302705   -0.1500
      2 C2         -9.1334   -0.5672   61.3930 C.3     1  ZINC001127302705   -0.1400
      3 C3         -9.7056    0.2580   60.2387 C.3     1  ZINC001127302705    0.1800
      4 C4        -10.7340    1.2516   60.7830 C.3     1  ZINC001127302705   -0.1600
      5 C5         -8.5742    1.0220   59.5479 C.3     1  ZINC001127302705    0.0700
      6 O6         -8.5472    0.6811   58.1605 O.3     1  ZINC001127302705   -0.2800
      7 C7         -7.6640    1.3519   57.3784 C.ar    1  ZINC001127302705    0.3400
      8 N8         -6.3732    1.0791   57.4658 N.ar    1  ZINC001127302705   -0.5300
      9 C9         -5.4807    1.7072   56.7238 C.ar    1  ZINC001127302705    0.1400
     10 C10        -5.8667    2.6793   55.8230 C.ar    1  ZINC001127302705   -0.2000
     11 C11        -7.2128    2.9958   55.7003 C.ar    1  ZINC001127302705   -0.0300
     12 C12        -8.1255    2.3153   56.4886 C.ar    1  ZINC001127302705   -0.1100
     13 Cl13       -9.8212    2.6699   56.3771 Cl      1  ZINC001127302705   -0.0400
     14 N14       -10.3523   -0.6347   59.2737 N.am    1  ZINC001127302705   -0.7100
     15 C15       -11.3674   -1.4297   59.6663 C.2     1  ZINC001127302705    0.6200
     16 O16       -11.7474   -1.4049   60.8209 O.2     1  ZINC001127302705   -0.5200
     17 C17       -12.0182   -2.3310   58.6939 C.2     1  ZINC001127302705   -0.0200
     18 N18       -11.6943   -2.4813   57.4250 N.2     1  ZINC001127302705   -0.2500
     19 N19       -12.4671   -3.3458   56.8721 N.pl3   1  ZINC001127302705   -0.2800
     20 C20       -12.3925   -3.7600   55.4689 C.3     1  ZINC001127302705    0.1600
     21 C21       -11.8371   -2.6303   54.6406 C.ar    1  ZINC001127302705   -0.1200
     22 C22       -12.2724   -1.3362   54.8561 C.ar    1  ZINC001127302705   -0.1000
     23 C23       -11.7629   -0.3000   54.0962 C.ar    1  ZINC001127302705   -0.1200
     24 C24       -10.8176   -0.5577   53.1211 C.ar    1  ZINC001127302705   -0.1100
     25 C25       -10.3815   -1.8518   52.9061 C.ar    1  ZINC001127302705   -0.1200
     26 C26       -10.8880   -2.8875   53.6690 C.ar    1  ZINC001127302705   -0.0800
     27 C27       -13.3580   -3.8180   57.7704 C.2     1  ZINC001127302705   -0.0200
     28 C28       -13.1040   -3.2019   58.9488 C.2     1  ZINC001127302705   -0.1800
     29 H29        -7.5439   -1.4021   60.2024 H       1  ZINC001127302705    0.0500
     30 H30        -7.9509   -2.3490   61.6536 H       1  ZINC001127302705    0.0600
     31 H31        -9.0290   -2.3826   60.2377 H       1  ZINC001127302705    0.0500
     32 H32        -9.9481   -0.9262   62.0218 H       1  ZINC001127302705    0.0900
     33 H33        -8.4629    0.0543   61.9866 H       1  ZINC001127302705    0.0800
     34 H34       -10.2529    1.9158   61.5010 H       1  ZINC001127302705    0.0700
     35 H35       -11.1417    1.8395   59.9607 H       1  ZINC001127302705    0.0500
     36 H36       -11.5401    0.7073   61.2750 H       1  ZINC001127302705    0.0800
     37 H37        -8.7409    2.0938   59.6556 H       1  ZINC001127302705    0.0800
     38 H38        -7.6223    0.7544   60.0064 H       1  ZINC001127302705    0.0700
     39 H39        -4.4346    1.4574   56.8227 H       1  ZINC001127302705    0.1700
     40 H40        -5.1293    3.1886   55.2203 H       1  ZINC001127302705    0.1500
     41 H41        -7.5412    3.7525   55.0032 H       1  ZINC001127302705    0.1500
     42 H42       -10.0500   -0.6536   58.3523 H       1  ZINC001127302705    0.4100
     43 H43       -11.7413   -4.6296   55.3808 H       1  ZINC001127302705    0.1000
     44 H44       -13.3903   -4.0157   55.1120 H       1  ZINC001127302705    0.1100
     45 H45       -13.0109   -1.1347   55.6180 H       1  ZINC001127302705    0.1200
     46 H46       -12.1036    0.7111   54.2642 H       1  ZINC001127302705    0.1300
     47 H47       -10.4200    0.2518   52.5269 H       1  ZINC001127302705    0.1200
     48 H48        -9.6434   -2.0533   52.1441 H       1  ZINC001127302705    0.1300
     49 H49       -10.5473   -3.8984   53.5010 H       1  ZINC001127302705    0.1300
     50 H50       -14.1265   -4.5536   57.5847 H       1  ZINC001127302705    0.1800
     51 H51       -13.6252   -3.3404   59.8845 H       1  ZINC001127302705    0.1600
@<TRIPOS>BOND
     1     1     2    1
     2     1    29    1
     3     1    30    1
     4     1    31    1
     5     2     3    1
     6     2    32    1
     7     2    33    1
     8     3     4    1
     9     3     5    1
    10     3    14    1
    11     4    34    1
    12     4    35    1
    13     4    36    1
    14     5     6    1
    15     5    37    1
    16     5    38    1
    17     6     7    1
    18     7    12   ar
    19     7     8   ar
    20     8     9   ar
    21     9    10   ar
    22     9    39    1
    23    10    11   ar
    24    10    40    1
    25    11    12   ar
    26    11    41    1
    27    12    13    1
    28    14    15   am
    29    14    42    1
    30    15    16    2
    31    15    17    1
    32    17    28    1
    33    17    18    2
    34    18    19    1
    35    19    20    1
    36    19    27    1
    37    20    21    1
    38    20    43    1
    39    20    44    1
    40    21    26   ar
    41    21    22   ar
    42    22    23   ar
    43    22    45    1
    44    23    24   ar
    45    23    46    1
    46    24    25   ar
    47    24    47    1
    48    25    26   ar
    49    25    48    1
    50    26    49    1
    51    27    28    2
    52    27    50    1
    53    28    51    1
@<TRIPOS>SUBSTRUCTURE
     1 ZINC001127302705        1 TEMP              0 ****  ****    0 ROOT


##########                                Name:    ZINC000432253027
##########                DOCK_Rotatable_Bonds:                   8
##########                         Heavy_Atoms:                  26
##########                    Molecular_Weight:             401.436
##########                DOCK_Rotatable_Bonds:                   8
##########                       Formal_Charge:         1.19209e-07
##########                     HBond_Acceptors:                  11
##########                        HBond_Donors:                   0
##########                         Heavy_Atoms:                  26
##########                          Grid_Score:          -33.692017
##########                     Grid_vdw_energy:          -34.203991
##########                      Grid_es_energy:            0.511974
##########           Internal_energy_repulsive:            8.002206

@<TRIPOS>MOLECULE
ZINC000432253027
 40 42 1 0 0
SMALL
USER_CHARGES


@<TRIPOS>ATOM
      1 C1         -2.2006   -1.3598   48.6402 C.3     1  ZINC000432253027    0.0300
      2 O2         -2.8348   -0.2464   48.0076 O.3     1  ZINC000432253027   -0.3100
      3 C3         -2.1925    0.3083   46.9472 C.ar    1  ZINC000432253027    0.1500
      4 C4         -2.1944   -0.3335   45.7197 C.ar    1  ZINC000432253027   -0.2100
      5 C5         -1.5399    0.2318   44.6412 C.ar    1  ZINC000432253027   -0.0600
      6 C6         -0.8799    1.4402   44.7790 C.ar    1  ZINC000432253027   -0.1600
      7 C7         -0.8689    2.0920   45.9950 C.ar    1  ZINC000432253027   -0.0300
      8 C8         -1.5306    1.5344   47.0890 C.ar    1  ZINC000432253027   -0.0600
      9 C9         -1.5225    2.2273   48.3943 C.2     1  ZINC000432253027    0.1200
     10 N10        -2.5296    2.3016   49.2169 N.2     1  ZINC000432253027   -0.4600
     11 C11        -2.3381    2.9613   50.3367 C.2     1  ZINC000432253027    0.0800
     12 C12        -3.4245    3.1174   51.3693 C.3     1  ZINC000432253027   -0.0200
     13 S13        -4.1024    4.7978   51.2847 S.3     1  ZINC000432253027   -0.1700
     14 C14        -4.7356    5.0674   52.9631 C.3     1  ZINC000432253027   -0.0300
     15 C15        -5.7135    3.9753   53.3126 C.2     1  ZINC000432253027    0.2100
     16 N16        -6.4626    3.2987   52.4766 N.2     1  ZINC000432253027   -0.2700
     17 N17        -7.1596    2.4568   53.1588 N.2     1  ZINC000432253027   -0.0500
     18 N18        -6.8746    2.5788   54.4083 N.2     1  ZINC000432253027   -0.0700
     19 N19        -5.9827    3.5014   54.5433 N.pl3   1  ZINC000432253027   -0.3100
     20 C20        -5.3831    3.9546   55.8007 C.3     1  ZINC000432253027    0.0700
     21 C21        -4.2290    3.0244   56.1796 C.3     1  ZINC000432253027    0.4300
     22 F22        -4.7351    1.7607   56.5022 F       1  ZINC000432253027   -0.1500
     23 F23        -3.3470    2.9116   55.0995 F       1  ZINC000432253027   -0.1700
     24 F24        -3.5494    3.5503   57.2837 F       1  ZINC000432253027   -0.1700
     25 C25        -1.1197    3.4851   50.5035 C.2     1  ZINC000432253027   -0.2500
     26 S26        -0.1468    3.0792   49.0910 S.3     1  ZINC000432253027    0.1600
     27 H27        -2.8172   -1.7060   49.4697 H       1  ZINC000432253027    0.1000
     28 H28        -2.0775   -2.1666   47.9176 H       1  ZINC000432253027    0.0600
     29 H29        -1.2235   -1.0561   49.0158 H       1  ZINC000432253027    0.0600
     30 H30        -2.7075   -1.2768   45.6052 H       1  ZINC000432253027    0.1400
     31 H31        -1.5434   -0.2725   43.6862 H       1  ZINC000432253027    0.1300
     32 H32        -0.3711    1.8749   43.9312 H       1  ZINC000432253027    0.1300
     33 H33        -0.3523    3.0348   46.0986 H       1  ZINC000432253027    0.1400
     34 H34        -4.2175    2.3954   51.1744 H       1  ZINC000432253027    0.1000
     35 H35        -3.0100    2.9424   52.3622 H       1  ZINC000432253027    0.1100
     36 H36        -3.9068    5.0531   53.6708 H       1  ZINC000432253027    0.1100
     37 H37        -5.2377    6.0337   53.0111 H       1  ZINC000432253027    0.1300
     38 H38        -5.0062    4.9700   55.6783 H       1  ZINC000432253027    0.1500
     39 H39        -6.1361    3.9390   56.5887 H       1  ZINC000432253027    0.1600
     40 H40        -0.7876    4.0555   51.3584 H       1  ZINC000432253027    0.1800
@<TRIPOS>BOND
     1     1     2    1
     2     1    27    1
     3     1    28    1
     4     1    29    1
     5     2     3    1
     6     3     8   ar
     7     3     4   ar
     8     4     5   ar
     9     4    30    1
    10     5     6   ar
    11     5    31    1
    12     6     7   ar
    13     6    32    1
    14     7     8   ar
    15     7    33    1
    16     8     9    1
    17     9    26    1
    18     9    10    2
    19    10    11    1
    20    11    12    1
    21    11    25    2
    22    12    13    1
    23    12    34    1
    24    12    35    1
    25    13    14    1
    26    14    15    1
    27    14    36    1
    28    14    37    1
    29    15    19    1
    30    15    16    2
    31    16    17    1
    32    17    18    2
    33    18    19    1
    34    19    20    1
    35    20    21    1
    36    20    38    1
    37    20    39    1
    38    21    22    1
    39    21    23    1
    40    21    24    1
    41    25    26    1
    42    25    40    1
@<TRIPOS>SUBSTRUCTURE
     1 ZINC000432253027        1 TEMP              0 ****  ****    0 ROOT


##########                                Name:    ZINC000600609084
##########                DOCK_Rotatable_Bonds:                   8
##########                         Heavy_Atoms:                  30
##########                    Molecular_Weight:             422.548
##########                DOCK_Rotatable_Bonds:                   8
##########                       Formal_Charge:           0.0100005
##########                     HBond_Acceptors:                   6
##########                        HBond_Donors:                   2
##########                         Heavy_Atoms:                  30
##########                          Grid_Score:          -33.673241
##########                     Grid_vdw_energy:          -33.107414
##########                      Grid_es_energy:           -0.565827
##########           Internal_energy_repulsive:           21.022837

@<TRIPOS>MOLECULE
ZINC000600609084
 56 59 1 0 0
SMALL
USER_CHARGES


@<TRIPOS>ATOM
      1 O1        -10.1900   -1.4799   62.2929 O.2     1  ZINC000600609084   -0.5300
      2 C2         -9.2207   -0.9897   61.7535 C.2     1  ZINC000600609084    0.5200
      3 C3         -8.8400   -1.4137   60.3583 C.3     1  ZINC000600609084   -0.1500
      4 C4        -10.0142   -1.1620   59.4104 C.3     1  ZINC000600609084    0.1300
      5 N5        -10.8344   -2.3722   59.3169 N.am    1  ZINC000600609084   -1.1200
      6 S6        -12.1691   -2.3943   58.3367 S.o2    1  ZINC000600609084    2.7000
      7 O7        -12.6516   -3.7308   58.3458 O.2     1  ZINC000600609084   -0.9600
      8 O8        -12.9635   -1.2786   58.7156 O.2     1  ZINC000600609084   -0.9500
      9 C9        -11.6156   -2.0761   56.6945 C.ar    1  ZINC000600609084   -0.6700
     10 C10       -11.5051   -3.1310   55.7911 C.ar    1  ZINC000600609084   -0.0400
     11 C11       -11.0806   -2.9196   54.5151 C.ar    1  ZINC000600609084   -0.1200
     12 C12       -10.7483   -1.6193   54.0995 C.ar    1  ZINC000600609084   -0.0100
     13 C13       -10.3071   -1.3616   52.7902 C.ar    1  ZINC000600609084   -0.1200
     14 C14        -9.9943   -0.0891   52.4232 C.ar    1  ZINC000600609084   -0.0900
     15 C15       -10.1048    0.9663   53.3270 C.ar    1  ZINC000600609084   -0.1200
     16 C16       -10.5286    0.7548   54.6028 C.ar    1  ZINC000600609084   -0.0900
     17 C17       -10.8608   -0.5460   55.0186 C.ar    1  ZINC000600609084   -0.0800
     18 C18       -11.3077   -0.8024   56.3257 C.ar    1  ZINC000600609084    0.0200
     19 N19        -8.4873   -0.0615   62.3994 N.am    1  ZINC000600609084   -0.7200
     20 C20        -8.8575    0.3506   63.7556 C.3     1  ZINC000600609084    0.1400
     21 H21        -9.8289   -0.0666   64.0203 H       1  ZINC000600609084    0.1000
     22 C22        -7.7904   -0.1203   64.7593 C.3     1  ZINC000600609084   -0.1300
     23 C23        -7.2214    1.1493   65.4257 C.3     1  ZINC000600609084   -0.1300
     24 C24        -7.5057    2.2759   64.4015 C.3     1  ZINC000600609084   -0.1200
     25 C25        -8.9008    1.8899   63.8468 C.3     1  ZINC000600609084   -0.0700
     26 H26        -9.6857    2.2101   64.5320 H       1  ZINC000600609084    0.0900
     27 C27        -9.1127    2.4966   62.4836 C.ar    1  ZINC000600609084   -0.0600
     28 C28       -10.3083    3.1223   62.1838 C.ar    1  ZINC000600609084   -0.1100
     29 C29       -10.5027    3.6787   60.9334 C.ar    1  ZINC000600609084   -0.1200
     30 C30        -9.5011    3.6099   59.9830 C.ar    1  ZINC000600609084   -0.1200
     31 C31        -8.3052    2.9850   60.2832 C.ar    1  ZINC000600609084   -0.1200
     32 C32        -8.1093    2.4324   61.5350 C.ar    1  ZINC000600609084   -0.1100
     33 H33        -7.9756   -0.8384   60.0268 H       1  ZINC000600609084    0.1000
     34 H34        -8.5923   -2.4753   60.3561 H       1  ZINC000600609084    0.1000
     35 H35       -10.6204   -0.3408   59.7929 H       1  ZINC000600609084    0.0900
     36 H36        -9.6343   -0.9033   58.4220 H       1  ZINC000600609084    0.0800
     37 H37       -10.5958   -3.1607   59.8291 H       1  ZINC000600609084    0.4200
     38 H38       -11.7595   -4.1317   56.1080 H       1  ZINC000600609084    0.1400
     39 H39       -10.9995   -3.7471   53.8258 H       1  ZINC000600609084    0.1400
     40 H40       -10.2162   -2.1695   52.0791 H       1  ZINC000600609084    0.1300
     41 H41        -9.6551    0.1061   51.4166 H       1  ZINC000600609084    0.1300
     42 H42        -9.8499    1.9668   53.0101 H       1  ZINC000600609084    0.1300
     43 H43       -10.6090    1.5822   55.2923 H       1  ZINC000600609084    0.1300
     44 H44       -11.4027    0.0062   57.0353 H       1  ZINC000600609084    0.1500
     45 H45        -7.7145    0.3334   61.9663 H       1  ZINC000600609084    0.4000
     46 H46        -8.2442   -0.7654   65.5116 H       1  ZINC000600609084    0.0800
     47 H47        -6.9971   -0.6556   64.2373 H       1  ZINC000600609084    0.0700
     48 H48        -7.7353    1.3498   66.3658 H       1  ZINC000600609084    0.0700
     49 H49        -6.1489    1.0455   65.5907 H       1  ZINC000600609084    0.0700
     50 H50        -7.5417    3.2469   64.8953 H       1  ZINC000600609084    0.0700
     51 H51        -6.7596    2.2728   63.6069 H       1  ZINC000600609084    0.0700
     52 H52       -11.0906    3.1760   62.9263 H       1  ZINC000600609084    0.1200
     53 H53       -11.4370    4.1669   60.6990 H       1  ZINC000600609084    0.1200
     54 H54        -9.6533    4.0440   59.0059 H       1  ZINC000600609084    0.1200
     55 H55        -7.5230    2.9309   59.5405 H       1  ZINC000600609084    0.1200
     56 H56        -7.1749    1.9441   61.7694 H       1  ZINC000600609084    0.1200
@<TRIPOS>BOND
     1     1     2    2
     2     2     3    1
     3     2    19   am
     4     3     4    1
     5     3    33    1
     6     3    34    1
     7     4     5    1
     8     4    35    1
     9     4    36    1
    10     5     6   am
    11     5    37    1
    12     6     7    2
    13     6     8    2
    14     6     9    1
    15     9    18   ar
    16     9    10   ar
    17    10    11   ar
    18    10    38    1
    19    11    12   ar
    20    11    39    1
    21    12    17   ar
    22    12    13   ar
    23    13    14   ar
    24    13    40    1
    25    14    15   ar
    26    14    41    1
    27    15    16   ar
    28    15    42    1
    29    16    17   ar
    30    16    43    1
    31    17    18   ar
    32    18    44    1
    33    19    20    1
    34    19    45    1
    35    20    21    1
    36    20    25    1
    37    20    22    1
    38    22    23    1
    39    22    46    1
    40    22    47    1
    41    23    24    1
    42    23    48    1
    43    23    49    1
    44    24    25    1
    45    24    50    1
    46    24    51    1
    47    25    26    1
    48    25    27    1
    49    27    32   ar
    50    27    28   ar
    51    28    29   ar
    52    28    52    1
    53    29    30   ar
    54    29    53    1
    55    30    31   ar
    56    30    54    1
    57    31    32   ar
    58    31    55    1
    59    32    56    1
@<TRIPOS>SUBSTRUCTURE
     1 ZINC000600609084        1 TEMP              0 ****  ****    0 ROOT


##########                                Name:    ZINC000185598309
##########                DOCK_Rotatable_Bonds:                  14
##########                         Heavy_Atoms:                  25
##########                    Molecular_Weight:             347.457
##########                DOCK_Rotatable_Bonds:                  14
##########                       Formal_Charge:               -0.02
##########                     HBond_Acceptors:                   6
##########                        HBond_Donors:                   4
##########                         Heavy_Atoms:                  25
##########                          Grid_Score:          -33.632484
##########                     Grid_vdw_energy:          -31.555763
##########                      Grid_es_energy:           -2.076721
##########           Internal_energy_repulsive:           12.252382

@<TRIPOS>MOLECULE
ZINC000185598309
 54 54 1 0 0
SMALL
USER_CHARGES


@<TRIPOS>ATOM
      1 C1          2.3245    2.3755   42.9768 C.3     1  ZINC000185598309   -0.1300
      2 C2          1.0881    1.5610   43.2574 C.2     1  ZINC000185598309   -0.1600
      3 C3          0.3406    1.8417   44.2959 C.2     1  ZINC000185598309   -0.1600
      4 C4         -0.8949    1.0261   44.5777 C.3     1  ZINC000185598309   -0.0900
      5 C5         -1.1681    1.0176   46.0830 C.3     1  ZINC000185598309    0.1700
      6 H6         -0.3644    0.4886   46.5952 H       1  ZINC000185598309    0.1000
      7 C7         -2.4981    0.3122   46.3560 C.3     1  ZINC000185598309    0.0600
      8 O8         -2.3716   -1.0779   46.0506 O.3     1  ZINC000185598309   -0.5700
      9 N9         -1.2366    2.3959   46.5746 N.am    1  ZINC000185598309   -0.7300
     10 C10        -1.1388    2.6460   47.8954 C.2     1  ZINC000185598309    0.7000
     11 O11        -0.9922    1.7277   48.6787 O.2     1  ZINC000185598309   -0.5900
     12 N12        -1.2033    3.9139   48.3478 N.am    1  ZINC000185598309   -0.7400
     13 C13        -1.0988    4.1854   49.7836 C.3     1  ZINC000185598309    0.1800
     14 C14        -2.4340    4.6506   50.3053 C.ar    1  ZINC000185598309   -0.0900
     15 C15        -3.0099    5.8013   49.7999 C.ar    1  ZINC000185598309   -0.1100
     16 C16        -4.2349    6.2318   50.2763 C.ar    1  ZINC000185598309   -0.1000
     17 C17        -4.8868    5.5127   51.2586 C.ar    1  ZINC000185598309   -0.1100
     18 C18        -4.3110    4.3560   51.7682 C.ar    1  ZINC000185598309    0.1400
     19 N19        -4.9691    3.6248   52.7631 N.am    1  ZINC000185598309   -0.6800
     20 C20        -4.9690    4.0675   54.0362 C.2     1  ZINC000185598309    0.5200
     21 O21        -4.3984    5.0996   54.3193 O.2     1  ZINC000185598309   -0.5200
     22 C22        -5.6779    3.2799   55.1078 C.3     1  ZINC000185598309   -0.1100
     23 H23        -5.7861    2.2441   54.7860 H       1  ZINC000185598309    0.1000
     24 C24        -7.0615    3.8845   55.3542 C.3     1  ZINC000185598309   -0.1500
     25 C25        -4.8619    3.3295   56.4011 C.3     1  ZINC000185598309   -0.1100
     26 C26        -3.6461    2.4096   56.2727 C.3     1  ZINC000185598309   -0.1600
     27 C27        -3.0835    3.9237   51.2840 C.ar    1  ZINC000185598309   -0.1300
     28 H28         2.8130    1.9969   42.0788 H       1  ZINC000185598309    0.0600
     29 H29         2.0461    3.4186   42.8265 H       1  ZINC000185598309    0.0600
     30 H30         3.0088    2.3001   43.8218 H       1  ZINC000185598309    0.0600
     31 H31         0.8182    0.7458   42.6023 H       1  ZINC000185598309    0.1100
     32 H32         0.6097    2.6577   44.9502 H       1  ZINC000185598309    0.1100
     33 H33        -1.7461    1.4640   44.0563 H       1  ZINC000185598309    0.0900
     34 H34        -0.7426    0.0041   44.2302 H       1  ZINC000185598309    0.0800
     35 H35        -2.7632    0.4308   47.4066 H       1  ZINC000185598309    0.0500
     36 H36        -3.2770    0.7517   45.7329 H       1  ZINC000185598309    0.0500
     37 H37        -2.1781   -1.2604   45.1208 H       1  ZINC000185598309    0.3800
     38 H38        -1.3522    3.1286   45.9496 H       1  ZINC000185598309    0.4000
     39 H39        -1.3191    4.6466   47.7227 H       1  ZINC000185598309    0.4000
     40 H40        -0.8021    3.2754   50.3049 H       1  ZINC000185598309    0.0700
     41 H41        -0.3521    4.9612   49.9533 H       1  ZINC000185598309    0.0800
     42 H42        -2.5022    6.3655   49.0316 H       1  ZINC000185598309    0.1300
     43 H43        -4.6820    7.1315   49.8800 H       1  ZINC000185598309    0.1300
     44 H44        -5.8431    5.8495   51.6305 H       1  ZINC000185598309    0.1300
     45 H45        -5.4254    2.7993   52.5368 H       1  ZINC000185598309    0.4100
     46 H46        -7.6428    3.8493   54.4328 H       1  ZINC000185598309    0.0600
     47 H47        -7.5742    3.3150   56.1293 H       1  ZINC000185598309    0.0800
     48 H48        -6.9533    4.9203   55.6760 H       1  ZINC000185598309    0.0600
     49 H49        -4.5271    4.3512   56.5806 H       1  ZINC000185598309    0.0700
     50 H50        -5.4816    2.9985   57.2345 H       1  ZINC000185598309    0.0700
     51 H51        -3.9809    1.3879   56.0932 H       1  ZINC000185598309    0.0600
     52 H52        -3.0264    2.7406   55.4392 H       1  ZINC000185598309    0.0600
     53 H53        -3.0649    2.4449   57.1941 H       1  ZINC000185598309    0.0600
     54 H54        -2.6332    3.0246   51.6781 H       1  ZINC000185598309    0.1300
@<TRIPOS>BOND
     1     1     2    1
     2     1    28    1
     3     1    29    1
     4     1    30    1
     5     2     3    2
     6     2    31    1
     7     3     4    1
     8     3    32    1
     9     4     5    1
    10     4    33    1
    11     4    34    1
    12     5     6    1
    13     5     7    1
    14     5     9    1
    15     7     8    1
    16     7    35    1
    17     7    36    1
    18     8    37    1
    19     9    10   am
    20     9    38    1
    21    10    11    2
    22    10    12   am
    23    12    13    1
    24    12    39    1
    25    13    14    1
    26    13    40    1
    27    13    41    1
    28    14    27   ar
    29    14    15   ar
    30    15    16   ar
    31    15    42    1
    32    16    17   ar
    33    16    43    1
    34    17    18   ar
    35    17    44    1
    36    18    19    1
    37    18    27   ar
    38    19    20   am
    39    19    45    1
    40    20    21    2
    41    20    22    1
    42    22    23    1
    43    22    24    1
    44    22    25    1
    45    24    46    1
    46    24    47    1
    47    24    48    1
    48    25    26    1
    49    25    49    1
    50    25    50    1
    51    26    51    1
    52    26    52    1
    53    26    53    1
    54    27    54    1
@<TRIPOS>SUBSTRUCTURE
     1 ZINC000185598309        1 TEMP              0 ****  ****    0 ROOT


##########                                Name:    ZINC000970996691
##########                DOCK_Rotatable_Bonds:                   7
##########                         Heavy_Atoms:                  24
##########                    Molecular_Weight:             334.462
##########                DOCK_Rotatable_Bonds:                   7
##########                       Formal_Charge:          -0.0199999
##########                     HBond_Acceptors:                   6
##########                        HBond_Donors:                   0
##########                         Heavy_Atoms:                  24
##########                          Grid_Score:          -33.628494
##########                     Grid_vdw_energy:          -32.419945
##########                      Grid_es_energy:           -1.208549
##########           Internal_energy_repulsive:           18.917051

@<TRIPOS>MOLECULE
ZINC000970996691
 54 56 1 0 0
SMALL
USER_CHARGES


@<TRIPOS>ATOM
      1 C1         -7.4591    0.7222   65.6665 C.3     1  ZINC000970996691   -0.1500
      2 C2         -8.4363    0.1070   64.6629 C.3     1  ZINC000970996691   -0.1200
      3 C3         -7.7080   -0.1704   63.3462 C.3     1  ZINC000970996691   -0.0300
      4 C4         -8.6703   -0.7777   62.3582 C.2     1  ZINC000970996691    0.1800
      5 N5         -9.9645   -0.5740   62.3024 N.2     1  ZINC000970996691   -0.4700
      6 C6        -10.4036   -1.3166   61.2706 C.2     1  ZINC000970996691    0.1800
      7 C7        -11.8288   -1.4255   60.7928 C.3     1  ZINC000970996691    0.1500
      8 N8        -11.9421   -0.8356   59.4523 N.3     1  ZINC000970996691   -0.5200
      9 C9        -11.0801    0.3467   59.3227 C.3     1  ZINC000970996691    0.0200
     10 C10       -11.6350   -1.8275   58.4130 C.3     1  ZINC000970996691    0.0700
     11 H11       -10.6729   -2.3035   58.6024 H       1  ZINC000970996691    0.0600
     12 C12       -12.7656   -2.8840   58.3010 C.3     1  ZINC000970996691   -0.1300
     13 C13       -12.6494   -3.3609   56.8380 C.3     1  ZINC000970996691    0.1000
     14 N14       -11.9612   -2.3010   56.0868 N.am    1  ZINC000970996691   -0.6200
     15 C15       -11.6495   -2.3426   54.7761 C.2     1  ZINC000970996691    0.5300
     16 O16       -11.9401   -3.3164   54.1143 O.2     1  ZINC000970996691   -0.5300
     17 C17       -10.9399   -1.1789   54.1332 C.3     1  ZINC000970996691   -0.1000
     18 C18       -10.3829   -1.6087   52.7746 C.3     1  ZINC000970996691   -0.1100
     19 C19        -9.6624   -0.4272   52.1219 C.3     1  ZINC000970996691   -0.1200
     20 C20       -10.6481    0.7266   51.9270 C.3     1  ZINC000970996691   -0.1200
     21 C21       -11.2053    1.1565   53.2856 C.3     1  ZINC000970996691   -0.1200
     22 C22       -11.9256   -0.0250   53.9383 C.3     1  ZINC000970996691   -0.1000
     23 C23       -11.6685   -1.1841   57.0042 C.3     1  ZINC000970996691    0.1200
     24 N24        -9.3733   -1.9227   60.7610 N.2     1  ZINC000970996691   -0.3800
     25 O25        -8.3669   -1.6221   61.3677 O.3     1  ZINC000970996691    0.0800
     26 H26        -6.6371    0.0291   65.8451 H       1  ZINC000970996691    0.0600
     27 H27        -7.0660    1.6563   65.2649 H       1  ZINC000970996691    0.0600
     28 H28        -7.9779    0.9199   66.6045 H       1  ZINC000970996691    0.0600
     29 H29        -8.8295   -0.8271   65.0645 H       1  ZINC000970996691    0.0700
     30 H30        -9.2583    0.8001   64.4843 H       1  ZINC000970996691    0.0700
     31 H31        -7.3158    0.7637   62.9443 H       1  ZINC000970996691    0.1100
     32 H32        -6.8855   -0.8629   63.5249 H       1  ZINC000970996691    0.1000
     33 H33       -12.1197   -2.4751   60.7539 H       1  ZINC000970996691    0.0700
     34 H34       -12.4844   -0.8920   61.4812 H       1  ZINC000970996691    0.1100
     35 H35       -10.0422    0.0599   59.4918 H       1  ZINC000970996691    0.0300
     36 H36       -11.1833    0.7636   58.3209 H       1  ZINC000970996691    0.0800
     37 H37       -11.3752    1.0940   60.0595 H       1  ZINC000970996691    0.0700
     38 H38       -12.5915   -3.7098   58.9908 H       1  ZINC000970996691    0.0800
     39 H39       -13.7390   -2.4278   58.4818 H       1  ZINC000970996691    0.0900
     40 H40       -12.0698   -4.2829   56.7936 H       1  ZINC000970996691    0.0700
     41 H41       -13.6433   -3.5249   56.4214 H       1  ZINC000970996691    0.0700
     42 H42       -10.1214   -0.8530   54.7749 H       1  ZINC000970996691    0.0900
     43 H43        -9.6805   -2.4307   52.9135 H       1  ZINC000970996691    0.0700
     44 H44       -11.2014   -1.9346   52.1329 H       1  ZINC000970996691    0.0700
     45 H45        -8.8439   -0.1013   52.7636 H       1  ZINC000970996691    0.0600
     46 H46        -9.2655   -0.7334   51.1540 H       1  ZINC000970996691    0.0700
     47 H47       -10.1349    1.5683   51.4620 H       1  ZINC000970996691    0.0600
     48 H48       -11.4667    0.4006   51.2853 H       1  ZINC000970996691    0.0600
     49 H49       -10.3867    1.4824   53.9273 H       1  ZINC000970996691    0.0600
     50 H50       -11.9075    1.9785   53.1468 H       1  ZINC000970996691    0.0700
     51 H51       -12.7442   -0.3509   53.2966 H       1  ZINC000970996691    0.0800
     52 H52       -12.3225    0.2812   54.9063 H       1  ZINC000970996691    0.0600
     53 H53       -12.4558   -0.4323   56.9500 H       1  ZINC000970996691    0.0800
     54 H54       -10.7019   -0.7404   56.7656 H       1  ZINC000970996691    0.0800
@<TRIPOS>BOND
     1     1     2    1
     2     1    26    1
     3     1    27    1
     4     1    28    1
     5     2     3    1
     6     2    29    1
     7     2    30    1
     8     3     4    1
     9     3    31    1
    10     3    32    1
    11     4    25    1
    12     4     5    2
    13     5     6    1
    14     6     7    1
    15     6    24    2
    16     7     8    1
    17     7    33    1
    18     7    34    1
    19     8     9    1
    20     8    10    1
    21     9    35    1
    22     9    36    1
    23     9    37    1
    24    10    11    1
    25    10    23    1
    26    10    12    1
    27    12    13    1
    28    12    38    1
    29    12    39    1
    30    13    14    1
    31    13    40    1
    32    13    41    1
    33    14    15   am
    34    14    23    1
    35    15    16    2
    36    15    17    1
    37    17    22    1
    38    17    18    1
    39    17    42    1
    40    18    19    1
    41    18    43    1
    42    18    44    1
    43    19    20    1
    44    19    45    1
    45    19    46    1
    46    20    21    1
    47    20    47    1
    48    20    48    1
    49    21    22    1
    50    21    49    1
    51    21    50    1
    52    22    51    1
    53    22    52    1
    54    23    53    1
    55    23    54    1
    56    24    25    1
@<TRIPOS>SUBSTRUCTURE
     1 ZINC000970996691        1 TEMP              0 ****  ****    0 ROOT


##########                                Name:    ZINC000762187039
##########                DOCK_Rotatable_Bonds:                   9
##########                         Heavy_Atoms:                  25
##########                    Molecular_Weight:             354.473
##########                DOCK_Rotatable_Bonds:                   9
##########                       Formal_Charge:        -1.78814e-07
##########                     HBond_Acceptors:                   5
##########                        HBond_Donors:                   1
##########                         Heavy_Atoms:                  25
##########                          Grid_Score:          -33.602226
##########                     Grid_vdw_energy:          -31.327038
##########                      Grid_es_energy:           -2.275188
##########           Internal_energy_repulsive:            7.425290

@<TRIPOS>MOLECULE
ZINC000762187039
 47 49 1 0 0
SMALL
USER_CHARGES


@<TRIPOS>ATOM
      1 C1         -7.0065    4.3302   57.0476 C.3     1  ZINC000762187039   -0.0800
      2 C2         -5.8637    3.3593   56.8971 C.2     1  ZINC000762187039    0.0500
      3 N3         -4.6181    3.6538   57.0600 N.2     1  ZINC000762187039   -0.4700
      4 C4         -3.7438    2.6825   56.8904 C.2     1  ZINC000762187039    0.0700
      5 C5         -2.2591    2.8852   57.0494 C.3     1  ZINC000762187039   -0.0300
      6 C6         -1.5956    2.8979   55.6708 C.3     1  ZINC000762187039   -0.1300
      7 C7         -2.2546    3.9412   54.8057 C.2     1  ZINC000762187039    0.5200
      8 O8         -1.8280    5.0764   54.7936 O.2     1  ZINC000762187039   -0.5400
      9 N9         -3.3179    3.6126   54.0456 N.am    1  ZINC000762187039   -0.7300
     10 C10        -3.9595    4.6272   53.2059 C.3     1  ZINC000762187039    0.1200
     11 C11        -3.2718    4.6679   51.8397 C.3     1  ZINC000762187039   -0.1300
     12 C12        -3.5801    3.3791   51.0749 C.3     1  ZINC000762187039    0.0600
     13 O13        -2.3635    2.6743   50.8192 O.3     1  ZINC000762187039   -0.3100
     14 C14        -2.0886    2.3681   49.5242 C.ar    1  ZINC000762187039    0.1300
     15 C15        -1.3556    3.2667   48.7434 C.ar    1  ZINC000762187039   -0.1900
     16 C16        -1.0646    2.9884   47.4442 C.ar    1  ZINC000762187039   -0.0600
     17 C17        -1.5047    1.7812   46.8745 C.ar    1  ZINC000762187039   -0.0800
     18 C18        -1.2215    1.4615   45.5357 C.ar    1  ZINC000762187039   -0.0900
     19 C19        -1.6628    0.2834   45.0165 C.ar    1  ZINC000762187039   -0.1300
     20 C20        -2.3934   -0.6144   45.7930 C.ar    1  ZINC000762187039   -0.1000
     21 C21        -2.6869   -0.3390   47.0929 C.ar    1  ZINC000762187039   -0.1200
     22 C22        -2.2478    0.8681   47.6645 C.ar    1  ZINC000762187039   -0.0100
     23 C23        -2.5272    1.1836   49.0039 C.ar    1  ZINC000762187039   -0.1500
     24 C24        -4.2820    1.5029   56.5664 C.2     1  ZINC000762187039   -0.2600
     25 S25        -6.0306    1.7065   56.4929 S.3     1  ZINC000762187039    0.1200
     26 H26        -7.9483    3.8150   56.8588 H       1  ZINC000762187039    0.0800
     27 H27        -7.0097    4.7335   58.0602 H       1  ZINC000762187039    0.0900
     28 H28        -6.8881    5.1444   56.3325 H       1  ZINC000762187039    0.0900
     29 H29        -2.0735    3.8351   57.5507 H       1  ZINC000762187039    0.0900
     30 H30        -1.8432    2.0726   57.6452 H       1  ZINC000762187039    0.0900
     31 H31        -0.5366    3.1320   55.7794 H       1  ZINC000762187039    0.0900
     32 H32        -1.7053    1.9182   55.2058 H       1  ZINC000762187039    0.1000
     33 H33        -3.6583    2.7044   54.0544 H       1  ZINC000762187039    0.4000
     34 H34        -5.0125    4.3777   53.0752 H       1  ZINC000762187039    0.0700
     35 H35        -3.8739    5.6025   53.6849 H       1  ZINC000762187039    0.0700
     36 H36        -3.6395    5.5234   51.2732 H       1  ZINC000762187039    0.0800
     37 H37        -2.1944    4.7595   51.9779 H       1  ZINC000762187039    0.0800
     38 H38        -4.2443    2.7531   51.6708 H       1  ZINC000762187039    0.0700
     39 H39        -4.0635    3.6246   50.1293 H       1  ZINC000762187039    0.0700
     40 H40        -1.0158    4.1953   49.1779 H       1  ZINC000762187039    0.1300
     41 H41        -0.4980    3.6923   46.8526 H       1  ZINC000762187039    0.1300
     42 H42        -0.6566    2.1473   44.9217 H       1  ZINC000762187039    0.1300
     43 H43        -1.4438    0.0406   43.9872 H       1  ZINC000762187039    0.1200
     44 H44        -2.7321   -1.5423   45.3563 H       1  ZINC000762187039    0.1200
     45 H45        -3.2539   -1.0441   47.6826 H       1  ZINC000762187039    0.1300
     46 H46        -3.0889    0.4954   49.6182 H       1  ZINC000762187039    0.1300
     47 H47        -3.7409    0.5860   56.3853 H       1  ZINC000762187039    0.1800
@<TRIPOS>BOND
     1     1     2    1
     2     1    26    1
     3     1    27    1
     4     1    28    1
     5     2    25    1
     6     2     3    2
     7     3     4    1
     8     4     5    1
     9     4    24    2
    10     5     6    1
    11     5    29    1
    12     5    30    1
    13     6     7    1
    14     6    31    1
    15     6    32    1
    16     7     8    2
    17     7     9   am
    18     9    10    1
    19     9    33    1
    20    10    11    1
    21    10    34    1
    22    10    35    1
    23    11    12    1
    24    11    36    1
    25    11    37    1
    26    12    13    1
    27    12    38    1
    28    12    39    1
    29    13    14    1
    30    14    23   ar
    31    14    15   ar
    32    15    16   ar
    33    15    40    1
    34    16    17   ar
    35    16    41    1
    36    17    22   ar
    37    17    18   ar
    38    18    19   ar
    39    18    42    1
    40    19    20   ar
    41    19    43    1
    42    20    21   ar
    43    20    44    1
    44    21    22   ar
    45    21    45    1
    46    22    23   ar
    47    23    46    1
    48    24    25    1
    49    24    47    1
@<TRIPOS>SUBSTRUCTURE
     1 ZINC000762187039        1 TEMP              0 ****  ****    0 ROOT


##########                                Name:    ZINC000654382142
##########                DOCK_Rotatable_Bonds:                  14
##########                         Heavy_Atoms:                  24
##########                    Molecular_Weight:             379.401
##########                DOCK_Rotatable_Bonds:                  14
##########                       Formal_Charge:          0.00999933
##########                     HBond_Acceptors:                  12
##########                        HBond_Donors:                   2
##########                         Heavy_Atoms:                  24
##########                          Grid_Score:          -33.583885
##########                     Grid_vdw_energy:          -31.216463
##########                      Grid_es_energy:           -2.367422
##########           Internal_energy_repulsive:           14.161099

@<TRIPOS>MOLECULE
ZINC000654382142
 48 47 1 0 0
SMALL
USER_CHARGES


@<TRIPOS>ATOM
      1 C1         -7.0323    4.7582   54.2928 C.3     1  ZINC000654382142    0.0300
      2 O2         -5.7491    5.3870   54.2815 O.3     1  ZINC000654382142   -0.3700
      3 C3         -4.9717    5.1005   53.1172 C.3     1  ZINC000654382142    0.0400
      4 C4         -4.3699    3.6990   53.2379 C.3     1  ZINC000654382142    0.1400
      5 N5         -2.9341    3.8057   53.5087 N.am    1  ZINC000654382142   -0.6100
      6 C6         -2.4660    4.1535   54.8526 C.3     1  ZINC000654382142    0.0800
      7 C7         -2.0014    2.8869   55.5744 C.3     1  ZINC000654382142    0.0500
      8 H8         -1.4399    2.2595   54.8823 H       1  ZINC000654382142    0.1400
      9 O9         -3.1392    2.1675   56.0539 O.3     1  ZINC000654382142   -0.5200
     10 C10        -1.1068    3.2716   56.7546 C.3     1  ZINC000654382142    0.4200
     11 F11        -1.8188    4.0997   57.6290 F       1  ZINC000654382142   -0.1800
     12 F12        -0.7046    2.1151   57.4312 F       1  ZINC000654382142   -0.1700
     13 F13         0.0209    3.9518   56.2826 F       1  ZINC000654382142   -0.1800
     14 C14        -2.0439    3.5840   52.5214 C.2     1  ZINC000654382142    0.7100
     15 O15        -0.8522    3.6710   52.7466 O.2     1  ZINC000654382142   -0.5600
     16 N16        -2.4746    3.2656   51.2847 N.am    1  ZINC000654382142   -0.7500
     17 C17        -1.5068    3.0263   50.2111 C.3     1  ZINC000654382142    0.1400
     18 C18        -2.0957    2.0348   49.2055 C.3     1  ZINC000654382142   -0.1600
     19 C19        -0.9778    1.1548   48.6428 C.3     1  ZINC000654382142    0.1200
     20 N20        -1.4963    0.3613   47.5257 N.am    1  ZINC000654382142   -1.0000
     21 C21        -1.5944    0.9540   46.1896 C.3     1  ZINC000654382142    0.0900
     22 S22        -1.9716   -1.2055   47.7734 S.o2    1  ZINC000654382142    2.6100
     23 C23        -0.4785   -2.0418   48.3750 C.3     1  ZINC000654382142   -0.6800
     24 O24        -2.9442   -1.1177   48.8057 O.2     1  ZINC000654382142   -0.9500
     25 O25        -2.3186   -1.6755   46.4780 O.2     1  ZINC000654382142   -0.9500
     26 H26        -7.5597    5.0252   55.2086 H       1  ZINC000654382142    0.0900
     27 H27        -7.6088    5.0936   53.4306 H       1  ZINC000654382142    0.0400
     28 H28        -6.9072    3.6763   54.2477 H       1  ZINC000654382142    0.0400
     29 H29        -5.6090    5.1474   52.2342 H       1  ZINC000654382142    0.0500
     30 H30        -4.1702    5.8335   53.0260 H       1  ZINC000654382142    0.0600
     31 H31        -4.8549    3.1645   54.0547 H       1  ZINC000654382142    0.0900
     32 H32        -4.5245    3.1557   52.3057 H       1  ZINC000654382142    0.1000
     33 H33        -1.6348    4.8546   54.7777 H       1  ZINC000654382142    0.1000
     34 H34        -3.2799    4.6133   55.4132 H       1  ZINC000654382142    0.1000
     35 H35        -2.9212    1.3344   56.4937 H       1  ZINC000654382142    0.3900
     36 H36        -3.4252    3.1949   51.1054 H       1  ZINC000654382142    0.3900
     37 H37        -1.2841    3.9665   49.7065 H       1  ZINC000654382142    0.0700
     38 H38        -0.5902    2.6145   50.6333 H       1  ZINC000654382142    0.0700
     39 H39        -2.8354    1.4082   49.7036 H       1  ZINC000654382142    0.0700
     40 H40        -2.5716    2.5820   48.3918 H       1  ZINC000654382142    0.0800
     41 H41        -0.1606    1.7852   48.2922 H       1  ZINC000654382142    0.0900
     42 H42        -0.6126    0.4876   49.4237 H       1  ZINC000654382142    0.1000
     43 H43        -0.6665    0.7786   45.6453 H       1  ZINC000654382142    0.0600
     44 H44        -2.4242    0.4979   45.6498 H       1  ZINC000654382142    0.0700
     45 H45        -1.7654    2.0268   46.2797 H       1  ZINC000654382142    0.0700
     46 H46        -0.1432   -1.5676   49.2974 H       1  ZINC000654382142    0.1300
     47 H47        -0.7020   -3.0913   48.5664 H       1  ZINC000654382142    0.1300
     48 H48         0.3069   -1.9688   47.6227 H       1  ZINC000654382142    0.1300
@<TRIPOS>BOND
     1     1     2    1
     2     1    26    1
     3     1    27    1
     4     1    28    1
     5     2     3    1
     6     3     4    1
     7     3    29    1
     8     3    30    1
     9     4     5    1
    10     4    31    1
    11     4    32    1
    12     5     6    1
    13     5    14   am
    14     6     7    1
    15     6    33    1
    16     6    34    1
    17     7     8    1
    18     7     9    1
    19     7    10    1
    20     9    35    1
    21    10    11    1
    22    10    12    1
    23    10    13    1
    24    14    15    2
    25    14    16   am
    26    16    17    1
    27    16    36    1
    28    17    18    1
    29    17    37    1
    30    17    38    1
    31    18    19    1
    32    18    39    1
    33    18    40    1
    34    19    20    1
    35    19    41    1
    36    19    42    1
    37    20    21    1
    38    20    22   am
    39    21    43    1
    40    21    44    1
    41    21    45    1
    42    22    23    1
    43    22    24    2
    44    22    25    2
    45    23    46    1
    46    23    47    1
    47    23    48    1
@<TRIPOS>SUBSTRUCTURE
     1 ZINC000654382142        1 TEMP              0 ****  ****    0 ROOT


##########                                Name:    ZINC000245764166
##########                DOCK_Rotatable_Bonds:                   8
##########                         Heavy_Atoms:                  26
##########                    Molecular_Weight:             359.512
##########                DOCK_Rotatable_Bonds:                   8
##########                       Formal_Charge:          -0.0100008
##########                     HBond_Acceptors:                   5
##########                        HBond_Donors:                   2
##########                         Heavy_Atoms:                  26
##########                          Grid_Score:          -33.583591
##########                     Grid_vdw_energy:          -33.012566
##########                      Grid_es_energy:           -0.571026
##########           Internal_energy_repulsive:           33.069771

@<TRIPOS>MOLECULE
ZINC000245764166
 59 61 1 0 0
SMALL
USER_CHARGES


@<TRIPOS>ATOM
      1 C1         -6.2014    3.3709   52.9968 C.3     1  ZINC000245764166    0.0200
      2 N2         -5.1786    4.4188   53.1146 N.3     1  ZINC000245764166   -0.5300
      3 C3         -4.9598    4.7852   54.5203 C.3     1  ZINC000245764166    0.0600
      4 C4         -4.6339    3.5481   55.3169 C.ar    1  ZINC000245764166   -0.0800
      5 C5         -5.6532    2.7720   55.8362 C.ar    1  ZINC000245764166   -0.1000
      6 C6         -5.3543    1.6373   56.5669 C.ar    1  ZINC000245764166   -0.1200
      7 C7         -4.0361    1.2784   56.7780 C.ar    1  ZINC000245764166   -0.1200
      8 C8         -3.0168    2.0540   56.2579 C.ar    1  ZINC000245764166   -0.1200
      9 C9         -3.3158    3.1864   55.5235 C.ar    1  ZINC000245764166   -0.1200
     10 C10        -3.9223    4.0021   52.4775 C.3     1  ZINC000245764166    0.0500
     11 C11        -3.3859    5.1444   51.6123 C.3     1  ZINC000245764166    0.1900
     12 C12        -4.4209    6.2698   51.5546 C.3     1  ZINC000245764166   -0.1600
     13 C13        -2.0865    5.6771   52.2192 C.3     1  ZINC000245764166   -0.1500
     14 N14        -3.1257    4.6504   50.2579 N.am    1  ZINC000245764166   -0.7400
     15 C15        -2.3047    3.5981   50.0705 C.2     1  ZINC000245764166    0.7000
     16 O16        -1.7788    3.0597   51.0255 O.2     1  ZINC000245764166   -0.5800
     17 N17        -2.0666    3.1426   48.8246 N.am    1  ZINC000245764166   -0.7500
     18 C18        -1.1727    1.9999   48.6209 C.3     1  ZINC000245764166    0.1800
     19 H19        -1.2236    1.3452   49.4908 H       1  ZINC000245764166    0.0900
     20 C20         0.2583    2.5048   48.4548 C.3     1  ZINC000245764166   -0.1300
     21 C21         1.1887    1.2963   48.3030 C.3     1  ZINC000245764166   -0.1100
     22 C22         0.8085    0.5540   47.0221 C.3     1  ZINC000245764166   -0.1100
     23 C23        -0.6290    0.0910   47.0601 C.3     1  ZINC000245764166    0.0900
     24 H24        -0.8933   -0.3265   46.0886 H       1  ZINC000245764166    0.0600
     25 O25        -0.8751   -0.8944   48.0724 O.3     1  ZINC000245764166   -0.3600
     26 C26        -2.3065   -0.9605   48.2285 C.3     1  ZINC000245764166    0.0500
     27 C27        -2.8785    0.4058   47.7989 C.3     1  ZINC000245764166   -0.1500
     28 C28        -1.6213    1.2246   47.3802 C.3     1  ZINC000245764166   -0.1300
     29 H29        -1.8081    1.8702   46.5220 H       1  ZINC000245764166    0.1000
     30 H30        -7.1264    3.7121   53.4616 H       1  ZINC000245764166    0.0800
     31 H31        -6.3818    3.1561   51.9435 H       1  ZINC000245764166    0.0700
     32 H32        -5.8550    2.4670   53.4978 H       1  ZINC000245764166    0.0200
     33 H33        -4.1306    5.4894   54.5873 H       1  ZINC000245764166    0.0400
     34 H34        -5.8624    5.2474   54.9201 H       1  ZINC000245764166    0.1100
     35 H35        -6.6830    3.0524   55.6713 H       1  ZINC000245764166    0.1200
     36 H36        -6.1506    1.0313   56.9733 H       1  ZINC000245764166    0.1200
     37 H37        -3.8026    0.3923   57.3494 H       1  ZINC000245764166    0.1200
     38 H38        -1.9870    1.7738   56.4230 H       1  ZINC000245764166    0.1200
     39 H39        -2.5196    3.7923   55.1172 H       1  ZINC000245764166    0.1200
     40 H40        -3.1902    3.7536   53.2458 H       1  ZINC000245764166    0.0400
     41 H41        -4.1043    3.1278   51.8526 H       1  ZINC000245764166    0.1000
     42 H42        -4.6144    6.6373   52.5624 H       1  ZINC000245764166    0.0700
     43 H43        -4.0388    7.0835   50.9382 H       1  ZINC000245764166    0.0800
     44 H44        -5.3467    5.8903   51.1222 H       1  ZINC000245764166    0.0500
     45 H45        -1.3122    4.9132   52.1480 H       1  ZINC000245764166    0.0600
     46 H46        -1.7697    6.5673   51.6757 H       1  ZINC000245764166    0.0800
     47 H47        -2.2517    5.9305   53.2665 H       1  ZINC000245764166    0.0600
     48 H48        -3.5444    5.0806   49.4959 H       1  ZINC000245764166    0.3900
     49 H49        -2.4871    3.5713   48.0629 H       1  ZINC000245764166    0.3900
     50 H50         0.3243    3.1313   47.5653 H       1  ZINC000245764166    0.0600
     51 H51         0.5474    3.0809   49.3337 H       1  ZINC000245764166    0.0700
     52 H52         2.2228    1.6348   48.2381 H       1  ZINC000245764166    0.0700
     53 H53         1.0721    0.6331   49.1602 H       1  ZINC000245764166    0.0700
     54 H54         0.9463    1.2195   46.1699 H       1  ZINC000245764166    0.0800
     55 H55         1.4593   -0.3126   46.9054 H       1  ZINC000245764166    0.0700
     56 H56        -2.7124   -1.7482   47.5939 H       1  ZINC000245764166    0.0600
     57 H57        -2.5570   -1.1559   49.2712 H       1  ZINC000245764166    0.0800
     58 H58        -3.5564    0.2877   46.9535 H       1  ZINC000245764166    0.0800
     59 H59        -3.3875    0.8869   48.6341 H       1  ZINC000245764166    0.0800
@<TRIPOS>BOND
     1     1     2    1
     2     1    30    1
     3     1    31    1
     4     1    32    1
     5     2     3    1
     6     2    10    1
     7     3     4    1
     8     3    33    1
     9     3    34    1
    10     4     9   ar
    11     4     5   ar
    12     5     6   ar
    13     5    35    1
    14     6     7   ar
    15     6    36    1
    16     7     8   ar
    17     7    37    1
    18     8     9   ar
    19     8    38    1
    20     9    39    1
    21    10    11    1
    22    10    40    1
    23    10    41    1
    24    11    12    1
    25    11    13    1
    26    11    14    1
    27    12    42    1
    28    12    43    1
    29    12    44    1
    30    13    45    1
    31    13    46    1
    32    13    47    1
    33    14    15   am
    34    14    48    1
    35    15    16    2
    36    15    17   am
    37    17    18    1
    38    17    49    1
    39    18    19    1
    40    18    28    1
    41    18    20    1
    42    20    21    1
    43    20    50    1
    44    20    51    1
    45    21    22    1
    46    21    52    1
    47    21    53    1
    48    22    23    1
    49    22    54    1
    50    22    55    1
    51    23    24    1
    52    23    28    1
    53    23    25    1
    54    25    26    1
    55    26    27    1
    56    26    56    1
    57    26    57    1
    58    27    28    1
    59    27    58    1
    60    27    59    1
    61    28    29    1
@<TRIPOS>SUBSTRUCTURE
     1 ZINC000245764166        1 TEMP              0 ****  ****    0 ROOT


##########                                Name:    ZINC000744839011
##########                DOCK_Rotatable_Bonds:                  10
##########                         Heavy_Atoms:                  24
##########                    Molecular_Weight:              378.83
##########                DOCK_Rotatable_Bonds:                  10
##########                       Formal_Charge:           0.0300002
##########                     HBond_Acceptors:                   9
##########                        HBond_Donors:                   0
##########                         Heavy_Atoms:                  24
##########                          Grid_Score:          -33.567753
##########                     Grid_vdw_energy:          -34.385262
##########                      Grid_es_energy:            0.817508
##########           Internal_energy_repulsive:           12.146309

@<TRIPOS>MOLECULE
ZINC000744839011
 43 43 1 0 0
SMALL
USER_CHARGES


@<TRIPOS>ATOM
      1 C1         -2.3887   -0.0763   45.2712 C.3     1  ZINC000744839011    0.0400
      2 O2         -2.3335   -1.2920   46.0633 O.3     1  ZINC000744839011   -0.3600
      3 C3         -1.7783   -1.1997   47.2876 C.2     1  ZINC000744839011    0.5100
      4 O4         -1.3233   -2.1902   47.8246 O.2     1  ZINC000744839011   -0.5000
      5 C5         -1.7231    0.1033   47.9759 C.ar    1  ZINC000744839011   -0.1600
      6 C6         -2.8180    0.5488   48.7215 C.ar    1  ZINC000744839011   -0.0100
      7 C7         -2.7626    1.7661   49.3633 C.ar    1  ZINC000744839011   -0.2100
      8 C8         -1.6202    2.5516   49.2707 C.ar    1  ZINC000744839011    0.1800
      9 O9         -1.5700    3.7506   49.9048 O.3     1  ZINC000744839011   -0.2900
     10 C10        -0.8483    3.8030   51.1370 C.3     1  ZINC000744839011    0.0500
     11 C11        -1.7685    3.3834   52.2851 C.3     1  ZINC000744839011    0.0600
     12 O12        -0.9869    3.2233   53.4983 O.3     1  ZINC000744839011   -0.3400
     13 C13        -1.6665    3.0485   54.6425 C.2     1  ZINC000744839011    0.5000
     14 O14        -1.1299    2.5245   55.5898 O.2     1  ZINC000744839011   -0.4900
     15 C15        -3.0987    3.5058   54.7457 C.3     1  ZINC000744839011   -0.6400
     16 S16        -3.7901    2.9741   56.3362 S.o2    1  ZINC000744839011    2.4400
     17 O17        -3.9602    1.5637   56.3072 O.2     1  ZINC000744839011   -0.9100
     18 O18        -3.0249    3.5594   57.3808 O.2     1  ZINC000744839011   -0.9100
     19 C19        -5.4276    3.7543   56.3126 C.3     1  ZINC000744839011   -0.5700
     20 C20        -6.2743    3.1293   55.2019 C.3     1  ZINC000744839011   -0.1500
     21 C21        -6.1155    3.5371   57.6619 C.3     1  ZINC000744839011   -0.1500
     22 C22        -0.5275    2.1122   48.5300 C.ar    1  ZINC000744839011   -0.0800
     23 Cl23        0.8973    3.0979   48.4185 Cl      1  ZINC000744839011   -0.0400
     24 C24        -0.5730    0.8937   47.8891 C.ar    1  ZINC000744839011   -0.0100
     25 H25        -2.9720    0.6766   45.8013 H       1  ZINC000744839011    0.0700
     26 H26        -1.3776    0.2966   45.1069 H       1  ZINC000744839011    0.0700
     27 H27        -2.8578   -0.2894   44.3107 H       1  ZINC000744839011    0.1100
     28 H28        -3.7067   -0.0606   48.7939 H       1  ZINC000744839011    0.1500
     29 H29        -3.6087    2.1109   49.9393 H       1  ZINC000744839011    0.1500
     30 H30         0.0038    3.1250   51.0881 H       1  ZINC000744839011    0.0900
     31 H31        -0.4944    4.8196   51.3080 H       1  ZINC000744839011    0.1000
     32 H32        -2.5279    4.1498   52.4407 H       1  ZINC000744839011    0.1100
     33 H33        -2.2517    2.4384   52.0368 H       1  ZINC000744839011    0.0900
     34 H34        -3.1388    4.5930   54.6772 H       1  ZINC000744839011    0.1700
     35 H35        -3.6790    3.0690   53.9330 H       1  ZINC000744839011    0.1700
     36 H36        -5.3183    4.8231   56.1283 H       1  ZINC000744839011    0.1400
     37 H37        -7.2582    3.5980   55.1877 H       1  ZINC000744839011    0.0900
     38 H38        -5.7842    3.2840   54.2407 H       1  ZINC000744839011    0.0700
     39 H39        -6.3837    2.0605   55.3862 H       1  ZINC000744839011    0.0800
     40 H40        -5.5123    3.9824   58.4530 H       1  ZINC000744839011    0.0800
     41 H41        -7.0995    4.0059   57.6476 H       1  ZINC000744839011    0.0900
     42 H42        -6.2249    2.4684   57.8461 H       1  ZINC000744839011    0.0800
     43 H43         0.2753    0.5530   47.3142 H       1  ZINC000744839011    0.1600
@<TRIPOS>BOND
     1     1     2    1
     2     1    25    1
     3     1    26    1
     4     1    27    1
     5     2     3    1
     6     3     4    2
     7     3     5    1
     8     5    24   ar
     9     5     6   ar
    10     6     7   ar
    11     6    28    1
    12     7     8   ar
    13     7    29    1
    14     8     9    1
    15     8    22   ar
    16     9    10    1
    17    10    11    1
    18    10    30    1
    19    10    31    1
    20    11    12    1
    21    11    32    1
    22    11    33    1
    23    12    13    1
    24    13    14    2
    25    13    15    1
    26    15    16    1
    27    15    34    1
    28    15    35    1
    29    16    17    2
    30    16    18    2
    31    16    19    1
    32    19    20    1
    33    19    21    1
    34    19    36    1
    35    20    37    1
    36    20    38    1
    37    20    39    1
    38    21    40    1
    39    21    41    1
    40    21    42    1
    41    22    23    1
    42    22    24   ar
    43    24    43    1
@<TRIPOS>SUBSTRUCTURE
     1 ZINC000744839011        1 TEMP              0 ****  ****    0 ROOT


##########                                Name:    ZINC000558052810
##########                DOCK_Rotatable_Bonds:                   9
##########                         Heavy_Atoms:                  30
##########                    Molecular_Weight:             424.524
##########                DOCK_Rotatable_Bonds:                   9
##########                       Formal_Charge:          -0.0200002
##########                     HBond_Acceptors:                   8
##########                        HBond_Donors:                   1
##########                         Heavy_Atoms:                  30
##########                          Grid_Score:          -33.520870
##########                     Grid_vdw_energy:          -32.041889
##########                      Grid_es_energy:           -1.478981
##########           Internal_energy_repulsive:           19.339050

@<TRIPOS>MOLECULE
ZINC000558052810
 54 56 1 0 0
SMALL
USER_CHARGES


@<TRIPOS>ATOM
      1 C1         -8.0330    6.1779   53.7854 C.3     1  ZINC000558052810   -0.1700
      2 C2         -7.6771    5.3330   52.5605 C.3     1  ZINC000558052810    0.1100
      3 N3         -8.0451    3.9366   52.8068 N.am    1  ZINC000558052810   -0.6100
      4 C4         -9.4415    3.5130   52.6762 C.3     1  ZINC000558052810    0.0700
      5 C5         -7.0990    3.0415   53.1535 C.2     1  ZINC000558052810    0.5600
      6 O6         -7.4042    1.8829   53.3582 O.2     1  ZINC000558052810   -0.5300
      7 C7         -5.6897    3.4691   53.2853 C.ar    1  ZINC000558052810   -0.1100
      8 C8         -5.0979    3.5515   54.5466 C.ar    1  ZINC000558052810   -0.1100
      9 C9         -3.7822    3.9510   54.6669 C.ar    1  ZINC000558052810   -0.1000
     10 C10        -3.0466    4.2710   53.5414 C.ar    1  ZINC000558052810   -0.1300
     11 C11        -3.6269    4.1926   52.2807 C.ar    1  ZINC000558052810    0.1400
     12 N12        -2.8783    4.5181   51.1447 N.am    1  ZINC000558052810   -0.6600
     13 C13        -1.6544    3.9821   50.9678 C.2     1  ZINC000558052810    0.5600
     14 O14        -1.2009    3.2153   51.7959 O.2     1  ZINC000558052810   -0.4800
     15 C15        -0.8658    4.3249   49.7712 C.ar    1  ZINC000558052810   -0.1900
     16 C16        -0.2102    5.5578   49.6788 C.ar    1  ZINC000558052810   -0.0200
     17 C17         0.5174    5.8315   48.5341 C.ar    1  ZINC000558052810   -0.1900
     18 C18         0.5768    4.8895   47.5224 C.ar    1  ZINC000558052810    0.1500
     19 N19        -0.0481    3.7332   47.6272 N.ar    1  ZINC000558052810   -0.4900
     20 C20        -0.7534    3.4167   48.7031 C.ar    1  ZINC000558052810    0.1600
     21 S21        -1.5683    1.8568   48.7894 S.3     1  ZINC000558052810    0.0600
     22 C22        -0.4344    0.8546   47.7965 C.3     1  ZINC000558052810   -0.0700
     23 C23        -1.2240   -0.1278   46.9704 C.2     1  ZINC000558052810   -0.2000
     24 C24        -1.9233    0.1097   45.8350 C.2     1  ZINC000558052810   -0.0100
     25 C25        -2.0742    1.4321   45.1282 C.3     1  ZINC000558052810   -0.0800
     26 O26        -2.4548   -1.0637   45.4641 O.3     1  ZINC000558052810    0.1000
     27 N27        -2.1571   -1.9490   46.2321 N.2     1  ZINC000558052810   -0.3600
     28 C28        -1.4012   -1.5119   47.1975 C.2     1  ZINC000558052810    0.0300
     29 C29        -0.8350   -2.3195   48.3370 C.3     1  ZINC000558052810   -0.0800
     30 C30        -4.9455    3.7861   52.1488 C.ar    1  ZINC000558052810   -0.0700
     31 H31        -9.1046    6.1123   53.9733 H       1  ZINC000558052810    0.0600
     32 H32        -7.4885    5.8065   54.6536 H       1  ZINC000558052810    0.0600
     33 H33        -7.7592    7.2169   53.6021 H       1  ZINC000558052810    0.0700
     34 H34        -8.2216    5.7045   51.6924 H       1  ZINC000558052810    0.0800
     35 H35        -6.6054    5.3987   52.3726 H       1  ZINC000558052810    0.0800
     36 H36        -9.6519    3.2715   51.6344 H       1  ZINC000558052810    0.0600
     37 H37        -9.6135    2.6326   53.2953 H       1  ZINC000558052810    0.0800
     38 H38       -10.0979    4.3200   53.0018 H       1  ZINC000558052810    0.0700
     39 H39        -5.6695    3.3031   55.4286 H       1  ZINC000558052810    0.1400
     40 H40        -3.3261    4.0142   55.6439 H       1  ZINC000558052810    0.1400
     41 H41        -2.0176    4.5833   53.6419 H       1  ZINC000558052810    0.1300
     42 H42        -3.2400    5.1296   50.4844 H       1  ZINC000558052810    0.4100
     43 H43        -0.2709    6.2782   50.4813 H       1  ZINC000558052810    0.1400
     44 H44         1.0349    6.7738   48.4309 H       1  ZINC000558052810    0.1500
     45 H45         1.1453    5.1056   46.6299 H       1  ZINC000558052810    0.1700
     46 H46         0.1416    1.5036   47.1369 H       1  ZINC000558052810    0.1000
     47 H47         0.2438    0.3125   48.4556 H       1  ZINC000558052810    0.1000
     48 H48        -1.2723    1.5479   44.3990 H       1  ZINC000558052810    0.0900
     49 H49        -3.0368    1.4635   44.6178 H       1  ZINC000558052810    0.0900
     50 H50        -2.0226    2.2414   45.8566 H       1  ZINC000558052810    0.0900
     51 H51         0.1372   -2.7206   48.0503 H       1  ZINC000558052810    0.0800
     52 H52        -0.7207   -1.6811   49.2131 H       1  ZINC000558052810    0.0800
     53 H53        -1.5120   -3.1409   48.5719 H       1  ZINC000558052810    0.0800
     54 H54        -5.3981    3.7242   51.1701 H       1  ZINC000558052810    0.1500
@<TRIPOS>BOND
     1     1     2    1
     2     1    31    1
     3     1    32    1
     4     1    33    1
     5     2     3    1
     6     2    34    1
     7     2    35    1
     8     3     4    1
     9     3     5   am
    10     4    36    1
    11     4    37    1
    12     4    38    1
    13     5     6    2
    14     5     7    1
    15     7    30   ar
    16     7     8   ar
    17     8     9   ar
    18     8    39    1
    19     9    10   ar
    20     9    40    1
    21    10    11   ar
    22    10    41    1
    23    11    12    1
    24    11    30   ar
    25    12    13   am
    26    12    42    1
    27    13    14    2
    28    13    15    1
    29    15    20   ar
    30    15    16   ar
    31    16    17   ar
    32    16    43    1
    33    17    18   ar
    34    17    44    1
    35    18    19   ar
    36    18    45    1
    37    19    20   ar
    38    20    21    1
    39    21    22    1
    40    22    23    1
    41    22    46    1
    42    22    47    1
    43    23    28    1
    44    23    24    2
    45    24    25    1
    46    24    26    1
    47    25    48    1
    48    25    49    1
    49    25    50    1
    50    26    27    1
    51    27    28    2
    52    28    29    1
    53    29    51    1
    54    29    52    1
    55    29    53    1
    56    30    54    1
@<TRIPOS>SUBSTRUCTURE
     1 ZINC000558052810        1 TEMP              0 ****  ****    0 ROOT


##########                                Name:    ZINC000508782983
##########                DOCK_Rotatable_Bonds:                   9
##########                         Heavy_Atoms:                  27
##########                    Molecular_Weight:             373.458
##########                DOCK_Rotatable_Bonds:                   9
##########                       Formal_Charge:          -0.0200006
##########                     HBond_Acceptors:                   9
##########                        HBond_Donors:                   2
##########                         Heavy_Atoms:                  27
##########                          Grid_Score:          -33.508820
##########                     Grid_vdw_energy:          -32.655090
##########                      Grid_es_energy:           -0.853730
##########           Internal_energy_repulsive:           15.883468

@<TRIPOS>MOLECULE
ZINC000508782983
 54 56 1 0 0
SMALL
USER_CHARGES


@<TRIPOS>ATOM
      1 C1         -1.6026    2.8292   55.4127 C.3     1  ZINC000508782983   -0.1500
      2 C2         -2.2505    2.7006   56.7928 C.3     1  ZINC000508782983   -0.1100
      3 C3         -1.1791    2.8491   57.8750 C.3     1  ZINC000508782983   -0.1500
      4 C4         -3.3048    3.7959   56.9653 C.3     1  ZINC000508782983    0.1000
      5 N5         -4.3062    3.6817   55.9021 N.pl3   1  ZINC000508782983   -0.4400
      6 C6         -5.2423    2.6917   55.7710 C.2     1  ZINC000508782983   -0.0400
      7 C7         -5.9541    2.9727   54.6628 C.2     1  ZINC000508782983   -0.0300
      8 N8         -5.4659    4.1036   54.1319 N.2     1  ZINC000508782983   -0.4700
      9 C9         -4.4819    4.5366   54.8716 C.2     1  ZINC000508782983    0.1700
     10 C10        -3.6700    5.7797   54.6134 C.3     1  ZINC000508782983    0.2100
     11 N11        -2.5561    5.4581   53.7179 N.am    1  ZINC000508782983   -0.6900
     12 C12        -2.7251    5.5218   52.3822 C.2     1  ZINC000508782983    0.5100
     13 O13        -3.8004    5.8441   51.9215 O.2     1  ZINC000508782983   -0.5100
     14 C14        -1.5882    5.1955   51.4687 C.2     1  ZINC000508782983    0.5100
     15 O15        -0.7765    6.0504   51.1809 O.2     1  ZINC000508782983   -0.5200
     16 N16        -1.4645    3.9517   50.9645 N.am    1  ZINC000508782983   -0.5800
     17 C17        -2.4405    2.9024   51.2955 C.3     1  ZINC000508782983    0.0800
     18 C18        -2.9308    2.2647   49.9913 C.3     1  ZINC000508782983    0.0400
     19 N19        -1.7744    1.8121   49.2063 N.3     1  ZINC000508782983   -0.5400
     20 C20        -2.2045    1.0426   48.0312 C.3     1  ZINC000508782983    0.1400
     21 C21        -1.5838   -0.3299   48.0749 C.2     1  ZINC000508782983    0.2100
     22 N22        -2.2359   -1.4603   48.0657 N.2     1  ZINC000508782983   -0.4900
     23 C23        -1.3612   -2.4760   48.1137 C.2     1  ZINC000508782983   -0.0300
     24 C24        -0.1200   -1.9553   48.1543 C.2     1  ZINC000508782983   -0.0500
     25 N25        -0.2603   -0.5940   48.1243 N.pl3   1  ZINC000508782983   -0.5600
     26 C26        -0.9224    2.9422   48.8127 C.3     1  ZINC000508782983    0.0400
     27 C27        -0.3533    3.6094   50.0637 C.3     1  ZINC000508782983    0.1100
     28 H28        -0.8515    2.0489   55.2899 H       1  ZINC000508782983    0.0700
     29 H29        -2.3658    2.7235   54.6418 H       1  ZINC000508782983    0.0600
     30 H30        -1.1289    3.8068   55.3235 H       1  ZINC000508782983    0.0600
     31 H31        -2.7242    1.7230   56.8822 H       1  ZINC000508782983    0.0800
     32 H32        -0.6531    3.7939   57.7383 H       1  ZINC000508782983    0.0600
     33 H33        -1.6507    2.8346   58.8576 H       1  ZINC000508782983    0.0600
     34 H34        -0.4703    2.0244   57.8001 H       1  ZINC000508782983    0.0600
     35 H35        -3.7899    3.6838   57.9349 H       1  ZINC000508782983    0.1000
     36 H36        -2.8256    4.7733   56.9096 H       1  ZINC000508782983    0.0900
     37 H37        -5.3828    1.8472   56.4295 H       1  ZINC000508782983    0.1800
     38 H38        -6.7742    2.3899   54.2705 H       1  ZINC000508782983    0.1700
     39 H39        -4.3022    6.5367   54.1494 H       1  ZINC000508782983    0.0900
     40 H40        -3.2792    6.1610   55.5568 H       1  ZINC000508782983    0.1100
     41 H41        -1.6968    5.1992   54.0861 H       1  ZINC000508782983    0.4200
     42 H42        -1.9658    2.1441   51.9181 H       1  ZINC000508782983    0.0800
     43 H43        -3.2841    3.3418   51.8279 H       1  ZINC000508782983    0.1400
     44 H44        -3.5703    1.4125   50.2210 H       1  ZINC000508782983    0.0900
     45 H45        -3.4953    2.9992   49.4169 H       1  ZINC000508782983    0.0400
     46 H46        -3.2905    0.9505   48.0348 H       1  ZINC000508782983    0.0900
     47 H47        -1.8864    1.5565   47.1240 H       1  ZINC000508782983    0.0700
     48 H48        -1.6090   -3.5271   48.1189 H       1  ZINC000508782983    0.1700
     49 H49         0.8081   -2.5060   48.1978 H       1  ZINC000508782983    0.1800
     50 H50         0.4566    0.0590   48.1410 H       1  ZINC000508782983    0.4200
     51 H51        -0.1056    2.5814   48.1877 H       1  ZINC000508782983    0.1100
     52 H52        -1.5149    3.6673   48.2547 H       1  ZINC000508782983    0.0400
     53 H53         0.1850    4.5147   49.7832 H       1  ZINC000508782983    0.1000
     54 H54         0.3224    2.9206   50.5709 H       1  ZINC000508782983    0.0800
@<TRIPOS>BOND
     1     1     2    1
     2     1    28    1
     3     1    29    1
     4     1    30    1
     5     2     3    1
     6     2     4    1
     7     2    31    1
     8     3    32    1
     9     3    33    1
    10     3    34    1
    11     4     5    1
    12     4    35    1
    13     4    36    1
    14     5     9    1
    15     5     6    1
    16     6     7    2
    17     6    37    1
    18     7     8    1
    19     7    38    1
    20     8     9    2
    21     9    10    1
    22    10    11    1
    23    10    39    1
    24    10    40    1
    25    11    12   am
    26    11    41    1
    27    12    13    2
    28    12    14    1
    29    14    15    2
    30    14    16   am
    31    16    27    1
    32    16    17    1
    33    17    18    1
    34    17    42    1
    35    17    43    1
    36    18    19    1
    37    18    44    1
    38    18    45    1
    39    19    20    1
    40    19    26    1
    41    20    21    1
    42    20    46    1
    43    20    47    1
    44    21    25    1
    45    21    22    2
    46    22    23    1
    47    23    24    2
    48    23    48    1
    49    24    25    1
    50    24    49    1
    51    25    50    1
    52    26    27    1
    53    26    51    1
    54    26    52    1
    55    27    53    1
    56    27    54    1
@<TRIPOS>SUBSTRUCTURE
     1 ZINC000508782983        1 TEMP              0 ****  ****    0 ROOT


##########                                Name:    ZINC000484424341
##########                DOCK_Rotatable_Bonds:                   7
##########                         Heavy_Atoms:                  26
##########                    Molecular_Weight:             359.425
##########                DOCK_Rotatable_Bonds:                   7
##########                       Formal_Charge:          -0.0100009
##########                     HBond_Acceptors:                   7
##########                        HBond_Donors:                   1
##########                         Heavy_Atoms:                  26
##########                          Grid_Score:          -33.463882
##########                     Grid_vdw_energy:          -31.960688
##########                      Grid_es_energy:           -1.503196
##########           Internal_energy_repulsive:           16.055487

@<TRIPOS>MOLECULE
ZINC000484424341
 51 53 1 0 0
SMALL
USER_CHARGES


@<TRIPOS>ATOM
      1 C1         -2.3689    0.3220   45.0288 C.3     1  ZINC000484424341    0.0300
      2 O2         -2.3110   -0.1355   46.3814 O.3     1  ZINC000484424341   -0.3800
      3 C3         -1.0549    0.0990   47.0211 C.3     1  ZINC000484424341    0.1300
      4 H4         -0.2577    0.0684   46.2784 H       1  ZINC000484424341    0.0700
      5 C5         -0.8104   -0.9815   48.0764 C.3     1  ZINC000484424341   -0.1700
      6 C6         -1.0732    1.4527   47.6829 C.ar    1  ZINC000484424341   -0.0700
      7 C7         -0.1234    2.3992   47.3457 C.ar    1  ZINC000484424341   -0.1000
      8 C8         -0.1365    3.6430   47.9507 C.ar    1  ZINC000484424341   -0.1000
      9 C9         -1.0990    3.9434   48.8939 C.ar    1  ZINC000484424341   -0.1100
     10 C10        -2.0552    2.9947   49.2352 C.ar    1  ZINC000484424341    0.1400
     11 N11        -3.0308    3.2956   50.1889 N.am    1  ZINC000484424341   -0.6400
     12 C12        -2.6687    3.5948   51.4522 C.2     1  ZINC000484424341    0.5100
     13 O13        -1.4950    3.6031   51.7613 O.2     1  ZINC000484424341   -0.4900
     14 C14        -3.7117    3.9165   52.4717 C.2     1  ZINC000484424341    0.5200
     15 O15        -4.8057    4.3058   52.1187 O.2     1  ZINC000484424341   -0.5200
     16 N16        -3.4380    3.7743   53.7837 N.am    1  ZINC000484424341   -0.5800
     17 C17        -4.3674    4.0537   54.8880 C.3     1  ZINC000484424341    0.1100
     18 C18        -3.6301    3.7220   56.2026 C.3     1  ZINC000484424341   -0.1500
     19 C19        -2.5225    2.7383   55.7410 C.3     1  ZINC000484424341    0.1500
     20 H20        -2.9119    1.7237   55.6556 H       1  ZINC000484424341    0.1100
     21 N21        -1.3714    2.7814   56.6461 N.am    1  ZINC000484424341   -0.6100
     22 C22        -1.3463    3.5096   57.9200 C.3     1  ZINC000484424341    0.1000
     23 C23        -0.1492    2.9276   58.7040 C.3     1  ZINC000484424341   -0.1300
     24 C24         0.7544    2.4098   57.5609 C.3     1  ZINC000484424341   -0.1600
     25 C25        -0.2043    2.1542   56.4190 C.2     1  ZINC000484424341    0.5200
     26 O26         0.0462    1.4866   55.4380 O.2     1  ZINC000484424341   -0.5200
     27 C27        -2.1593    3.3066   54.3489 C.3     1  ZINC000484424341    0.0900
     28 C28        -2.0424    1.7486   48.6215 C.ar    1  ZINC000484424341   -0.1300
     29 H29        -1.6075   -0.1890   44.4396 H       1  ZINC000484424341    0.0400
     30 H30        -3.3540    0.1071   44.6145 H       1  ZINC000484424341    0.0900
     31 H31        -2.1895    1.3967   45.0009 H       1  ZINC000484424341    0.0400
     32 H32        -1.6076   -0.9509   48.8191 H       1  ZINC000484424341    0.0700
     33 H33        -0.7972   -1.9606   47.5977 H       1  ZINC000484424341    0.0600
     34 H34         0.1478   -0.8025   48.5643 H       1  ZINC000484424341    0.0700
     35 H35         0.6309    2.1667   46.6085 H       1  ZINC000484424341    0.1300
     36 H36         0.6072    4.3798   47.6852 H       1  ZINC000484424341    0.1300
     37 H37        -1.1085    4.9147   49.3661 H       1  ZINC000484424341    0.1300
     38 H38        -3.9689    3.2891   49.9419 H       1  ZINC000484424341    0.4200
     39 H39        -4.6503    5.1063   54.8771 H       1  ZINC000484424341    0.0800
     40 H40        -5.2550    3.4281   54.7929 H       1  ZINC000484424341    0.0800
     41 H41        -3.1914    4.6207   56.6360 H       1  ZINC000484424341    0.0900
     42 H42        -4.3033    3.2397   56.9112 H       1  ZINC000484424341    0.0900
     43 H43        -1.1990    4.5749   57.7427 H       1  ZINC000484424341    0.0800
     44 H44        -2.2734    3.3424   58.4684 H       1  ZINC000484424341    0.0800
     45 H45         0.3553    3.7041   59.2788 H       1  ZINC000484424341    0.0900
     46 H46        -0.4670    2.1098   59.3508 H       1  ZINC000484424341    0.0800
     47 H47         1.4902    3.1650   57.2846 H       1  ZINC000484424341    0.1100
     48 H48         1.2487    1.4839   57.8550 H       1  ZINC000484424341    0.1000
     49 H49        -1.7260    2.5271   53.7221 H       1  ZINC000484424341    0.0900
     50 H50        -1.4668    4.1424   54.4493 H       1  ZINC000484424341    0.0900
     51 H51        -2.7842    1.0089   48.8842 H       1  ZINC000484424341    0.1300
@<TRIPOS>BOND
     1     1     2    1
     2     1    29    1
     3     1    30    1
     4     1    31    1
     5     2     3    1
     6     3     4    1
     7     3     5    1
     8     3     6    1
     9     5    32    1
    10     5    33    1
    11     5    34    1
    12     6    28   ar
    13     6     7   ar
    14     7     8   ar
    15     7    35    1
    16     8     9   ar
    17     8    36    1
    18     9    10   ar
    19     9    37    1
    20    10    11    1
    21    10    28   ar
    22    11    12   am
    23    11    38    1
    24    12    13    2
    25    12    14    1
    26    14    15    2
    27    14    16   am
    28    16    27    1
    29    16    17    1
    30    17    18    1
    31    17    39    1
    32    17    40    1
    33    18    19    1
    34    18    41    1
    35    18    42    1
    36    19    20    1
    37    19    21    1
    38    19    27    1
    39    21    25   am
    40    21    22    1
    41    22    23    1
    42    22    43    1
    43    22    44    1
    44    23    24    1
    45    23    45    1
    46    23    46    1
    47    24    25    1
    48    24    47    1
    49    24    48    1
    50    25    26    2
    51    27    49    1
    52    27    50    1
    53    28    51    1
@<TRIPOS>SUBSTRUCTURE
     1 ZINC000484424341        1 TEMP              0 ****  ****    0 ROOT


##########                                Name:    ZINC000467185792
##########                DOCK_Rotatable_Bonds:                   9
##########                         Heavy_Atoms:                  29
##########                    Molecular_Weight:             412.513
##########                DOCK_Rotatable_Bonds:                   9
##########                       Formal_Charge:                0.04
##########                     HBond_Acceptors:                   8
##########                        HBond_Donors:                   2
##########                         Heavy_Atoms:                  29
##########                          Grid_Score:          -33.452915
##########                     Grid_vdw_energy:          -30.714201
##########                      Grid_es_energy:           -2.738715
##########           Internal_energy_repulsive:           22.735836

@<TRIPOS>MOLECULE
ZINC000467185792
 53 55 1 0 0
SMALL
USER_CHARGES


@<TRIPOS>ATOM
      1 C1          1.8164    1.7329   60.1728 C.3     1  ZINC000467185792   -0.1500
      2 C2          2.2423    2.5351   58.9416 C.3     1  ZINC000467185792   -0.1200
      3 C3          1.1431    2.4618   57.8799 C.3     1  ZINC000467185792    0.0600
      4 O4          1.5411    3.2106   56.7297 O.3     1  ZINC000467185792   -0.3100
      5 C5          0.6709    3.2481   55.6863 C.ar    1  ZINC000467185792    0.1400
      6 C6          1.0685    3.7911   54.4722 C.ar    1  ZINC000467185792   -0.2100
      7 C7          0.1880    3.8302   53.4112 C.ar    1  ZINC000467185792   -0.0400
      8 C8         -1.1023    3.3238   53.5592 C.ar    1  ZINC000467185792   -0.0600
      9 C9         -2.0516    3.3639   52.4200 C.2     1  ZINC000467185792    0.1400
     10 C10        -3.3590    3.6336   52.5832 C.2     1  ZINC000467185792   -0.3000
     11 S11        -4.1330    3.5860   51.0008 S.3     1  ZINC000467185792    0.2000
     12 C12        -2.5854    3.1984   50.2549 C.2     1  ZINC000467185792    0.2800
     13 N13        -2.3781    2.9913   48.8980 N.am    1  ZINC000467185792   -0.6100
     14 C14        -1.5839    1.9842   48.4837 C.2     1  ZINC000467185792    0.5900
     15 O15        -1.0489    1.2570   49.2986 O.2     1  ZINC000467185792   -0.4900
     16 C16        -1.3638    1.7643   47.0434 C.2     1  ZINC000467185792   -0.2400
     17 C17        -0.3296    2.4041   46.3630 C.2     1  ZINC000467185792    0.0800
     18 C18         0.6038    3.3463   47.0787 C.3     1  ZINC000467185792   -0.1200
     19 C19         0.0067    4.7550   47.0769 C.3     1  ZINC000467185792   -0.1400
     20 C20        -0.1832    2.1452   44.9948 C.2     1  ZINC000467185792    0.0600
     21 C21         0.9229    2.8164   44.2220 C.3     1  ZINC000467185792   -0.0600
     22 C22         2.1772    1.9412   44.2627 C.3     1  ZINC000467185792   -0.1500
     23 N23        -0.9959    1.3274   44.3827 N.2     1  ZINC000467185792   -0.1800
     24 N24        -1.9573    0.7225   44.9782 N.am    1  ZINC000467185792   -0.4300
     25 C25        -2.1957    0.8855   46.2937 C.2     1  ZINC000467185792    0.5000
     26 O26        -3.1173    0.2972   46.8326 O.2     1  ZINC000467185792   -0.5300
     27 N27        -1.6686    3.1418   51.1706 N.2     1  ZINC000467185792   -0.5000
     28 C28        -1.4984    2.7793   54.7797 C.ar    1  ZINC000467185792   -0.0600
     29 C29        -0.6115    2.7383   55.8352 C.ar    1  ZINC000467185792   -0.1500
     30 H30         1.6530    0.6930   59.8902 H       1  ZINC000467185792    0.0600
     31 H31         2.5995    1.7850   60.9292 H       1  ZINC000467185792    0.0700
     32 H32         0.8933    2.1491   60.5762 H       1  ZINC000467185792    0.0600
     33 H33         2.4057    3.5751   59.2242 H       1  ZINC000467185792    0.0700
     34 H34         3.1654    2.1188   58.5382 H       1  ZINC000467185792    0.0700
     35 H35         0.9793    1.4218   57.5976 H       1  ZINC000467185792    0.0600
     36 H36         0.2201    2.8785   58.2831 H       1  ZINC000467185792    0.0600
     37 H37         2.0682    4.1836   54.3584 H       1  ZINC000467185792    0.1300
     38 H38         0.4979    4.2531   52.4669 H       1  ZINC000467185792    0.1300
     39 H39        -3.8501    3.8430   53.5220 H       1  ZINC000467185792    0.1800
     40 H40        -2.8048    3.5712   48.2480 H       1  ZINC000467185792    0.4400
     41 H41         0.7405    3.0109   48.1069 H       1  ZINC000467185792    0.0900
     42 H42         1.5675    3.3595   46.5696 H       1  ZINC000467185792    0.1300
     43 H43        -0.1300    5.0903   46.0488 H       1  ZINC000467185792    0.0600
     44 H44        -0.9570    4.7418   47.5860 H       1  ZINC000467185792    0.0600
     45 H45         0.6819    5.4364   47.5946 H       1  ZINC000467185792    0.0700
     46 H46         0.6104    2.9557   43.1871 H       1  ZINC000467185792    0.1000
     47 H47         1.1419    3.7861   44.6691 H       1  ZINC000467185792    0.1000
     48 H48         2.9772    2.4266   43.7037 H       1  ZINC000467185792    0.0600
     49 H49         2.4897    1.8019   45.2975 H       1  ZINC000467185792    0.0600
     50 H50         1.9582    0.9715   43.8156 H       1  ZINC000467185792    0.0600
     51 H51        -2.5270    0.1266   44.4669 H       1  ZINC000467185792    0.4500
     52 H52        -2.4975    2.3865   54.8975 H       1  ZINC000467185792    0.1300
     53 H53        -0.9177    2.3163   56.7809 H       1  ZINC000467185792    0.1400
@<TRIPOS>BOND
     1     1     2    1
     2     1    30    1
     3     1    31    1
     4     1    32    1
     5     2     3    1
     6     2    33    1
     7     2    34    1
     8     3     4    1
     9     3    35    1
    10     3    36    1
    11     4     5    1
    12     5    29   ar
    13     5     6   ar
    14     6     7   ar
    15     6    37    1
    16     7     8   ar
    17     7    38    1
    18     8     9    1
    19     8    28   ar
    20     9    27    1
    21     9    10    2
    22    10    11    1
    23    10    39    1
    24    11    12    1
    25    12    13    1
    26    12    27    2
    27    13    14   am
    28    13    40    1
    29    14    15    2
    30    14    16    1
    31    16    25    1
    32    16    17    2
    33    17    18    1
    34    17    20    1
    35    18    19    1
    36    18    41    1
    37    18    42    1
    38    19    43    1
    39    19    44    1
    40    19    45    1
    41    20    21    1
    42    20    23    2
    43    21    22    1
    44    21    46    1
    45    21    47    1
    46    22    48    1
    47    22    49    1
    48    22    50    1
    49    23    24    1
    50    24    25   am
    51    24    51    1
    52    25    26    2
    53    28    29   ar
    54    28    52    1
    55    29    53    1
@<TRIPOS>SUBSTRUCTURE
     1 ZINC000467185792        1 TEMP              0 ****  ****    0 ROOT


##########                                Name:    ZINC000981700465
##########                DOCK_Rotatable_Bonds:                   9
##########                         Heavy_Atoms:                  26
##########                    Molecular_Weight:             356.428
##########                DOCK_Rotatable_Bonds:                   9
##########                       Formal_Charge:               -0.01
##########                     HBond_Acceptors:                   8
##########                        HBond_Donors:                   3
##########                         Heavy_Atoms:                  26
##########                          Grid_Score:          -33.395817
##########                     Grid_vdw_energy:          -33.128525
##########                      Grid_es_energy:           -0.267294
##########           Internal_energy_repulsive:           13.014316

@<TRIPOS>MOLECULE
ZINC000981700465
 50 52 1 0 0
SMALL
USER_CHARGES


@<TRIPOS>ATOM
      1 C1        -10.5784   -1.1312   52.2990 C.3     1  ZINC000981700465   -0.1500
      2 C2        -10.7745    0.3839   52.3837 C.3     1  ZINC000981700465   -0.1100
      3 C3         -9.4332    1.0851   52.1599 C.3     1  ZINC000981700465   -0.0500
      4 C4         -9.6266    2.5773   52.2419 C.2     1  ZINC000981700465    0.1400
      5 N5        -10.7385    3.2200   52.0132 N.2     1  ZINC000981700465   -0.2900
      6 N6        -10.5152    4.5898   52.1915 N.pl3   1  ZINC000981700465   -0.4600
      7 C7         -9.2305    4.7704   52.5374 C.2     1  ZINC000981700465    0.1000
      8 C8         -8.6369    3.5251   52.5863 C.2     1  ZINC000981700465   -0.2900
      9 C9         -7.2307    3.2385   52.9243 C.2     1  ZINC000981700465    0.5900
     10 O10        -6.8225    2.0932   52.9073 O.2     1  ZINC000981700465   -0.5300
     11 N11        -6.3977    4.2460   53.2523 N.am    1  ZINC000981700465   -0.7300
     12 C12        -5.0009    3.9611   53.5899 C.3     1  ZINC000981700465    0.1300
     13 C13        -4.0853    4.5616   52.5214 C.3     1  ZINC000981700465   -0.1100
     14 H14        -4.1841    5.6469   52.5018 H       1  ZINC000981700465    0.0900
     15 C15        -2.6128    4.1558   52.7789 C.3     1  ZINC000981700465   -0.1200
     16 C16        -1.9699    4.2944   51.3766 C.3     1  ZINC000981700465   -0.1300
     17 C17        -3.0611    3.7925   50.4087 C.3     1  ZINC000981700465    0.1400
     18 H18        -3.0529    4.3878   49.4956 H       1  ZINC000981700465    0.1000
     19 N19        -2.8373    2.3805   50.0888 N.am    1  ZINC000981700465   -0.7100
     20 C20        -1.9486    2.0383   49.1351 C.2     1  ZINC000981700465    0.5600
     21 O21        -1.3341    2.9010   48.5395 O.2     1  ZINC000981700465   -0.5200
     22 C22        -1.7210    0.6104   48.8129 C.ar    1  ZINC000981700465   -0.1400
     23 C23        -0.4399    0.1311   48.5107 C.ar    1  ZINC000981700465   -0.0600
     24 C24        -0.3058   -1.2168   48.2200 C.ar    1  ZINC000981700465    0.0400
     25 N25        -1.3651   -2.0024   48.2340 N.ar    1  ZINC000981700465   -0.2200
     26 N26        -2.5408   -1.5699   48.5098 N.ar    1  ZINC000981700465   -0.2400
     27 C27        -2.7761   -0.3062   48.8055 C.ar    1  ZINC000981700465    0.0700
     28 C28        -4.4086    3.9649   51.1359 C.3     1  ZINC000981700465   -0.1200
     29 H29        -9.8700   -1.4492   53.0640 H       1  ZINC000981700465    0.0600
     30 H30       -11.5339   -1.6307   52.4584 H       1  ZINC000981700465    0.0600
     31 H31       -10.1914   -1.3930   51.3142 H       1  ZINC000981700465    0.0500
     32 H32       -11.4828    0.7018   51.6186 H       1  ZINC000981700465    0.0600
     33 H33       -11.1615    0.6457   53.3685 H       1  ZINC000981700465    0.0600
     34 H34        -8.7251    0.7678   52.9254 H       1  ZINC000981700465    0.1000
     35 H35        -9.0458    0.8226   51.1755 H       1  ZINC000981700465    0.0800
     36 H36       -11.1769    5.2907   52.0836 H       1  ZINC000981700465    0.4500
     37 H37        -8.7509    5.7157   52.7437 H       1  ZINC000981700465    0.1800
     38 H38        -6.7230    5.1597   53.2647 H       1  ZINC000981700465    0.4000
     39 H39        -4.7646    4.3999   54.5593 H       1  ZINC000981700465    0.0700
     40 H40        -4.8503    2.8824   53.6330 H       1  ZINC000981700465    0.0700
     41 H41        -2.1429    4.8369   53.4884 H       1  ZINC000981700465    0.0700
     42 H42        -2.5520    3.1263   53.1317 H       1  ZINC000981700465    0.0700
     43 H43        -1.7266    5.3366   51.1699 H       1  ZINC000981700465    0.0800
     44 H44        -1.0783    3.6716   51.3024 H       1  ZINC000981700465    0.0700
     45 H45        -3.3287    1.6919   50.5634 H       1  ZINC000981700465    0.4000
     46 H46         0.4151    0.7909   48.5042 H       1  ZINC000981700465    0.1700
     47 H47         0.6657   -1.6241   47.9818 H       1  ZINC000981700465    0.1800
     48 H48        -3.7802    0.0202   49.0327 H       1  ZINC000981700465    0.1700
     49 H49        -4.8964    2.9973   51.2526 H       1  ZINC000981700465    0.0800
     50 H50        -5.0518    4.6426   50.5745 H       1  ZINC000981700465    0.0800
@<TRIPOS>BOND
     1     1     2    1
     2     1    29    1
     3     1    30    1
     4     1    31    1
     5     2     3    1
     6     2    32    1
     7     2    33    1
     8     3     4    1
     9     3    34    1
    10     3    35    1
    11     4     8    1
    12     4     5    2
    13     5     6    1
    14     6     7    1
    15     6    36    1
    16     7     8    2
    17     7    37    1
    18     8     9    1
    19     9    10    2
    20     9    11   am
    21    11    12    1
    22    11    38    1
    23    12    13    1
    24    12    39    1
    25    12    40    1
    26    13    14    1
    27    13    28    1
    28    13    15    1
    29    15    16    1
    30    15    41    1
    31    15    42    1
    32    16    17    1
    33    16    43    1
    34    16    44    1
    35    17    18    1
    36    17    19    1
    37    17    28    1
    38    19    20   am
    39    19    45    1
    40    20    21    2
    41    20    22    1
    42    22    27   ar
    43    22    23   ar
    44    23    24   ar
    45    23    46    1
    46    24    25   ar
    47    24    47    1
    48    25    26   ar
    49    26    27   ar
    50    27    48    1
    51    28    49    1
    52    28    50    1
@<TRIPOS>SUBSTRUCTURE
     1 ZINC000981700465        1 TEMP              0 ****  ****    0 ROOT


##########                                Name:    ZINC000002634904
##########                DOCK_Rotatable_Bonds:                   7
##########                         Heavy_Atoms:                  31
##########                    Molecular_Weight:             423.498
##########                DOCK_Rotatable_Bonds:                   7
##########                       Formal_Charge:        -7.45058e-08
##########                     HBond_Acceptors:                   7
##########                        HBond_Donors:                   1
##########                         Heavy_Atoms:                  31
##########                          Grid_Score:          -33.388584
##########                     Grid_vdw_energy:          -29.437958
##########                      Grid_es_energy:           -3.950627
##########           Internal_energy_repulsive:            4.199981

@<TRIPOS>MOLECULE
ZINC000002634904
 48 51 1 0 0
SMALL
USER_CHARGES


@<TRIPOS>ATOM
      1 N1        -10.2882    5.2450   57.4113 N.1     1  ZINC000002634904   -0.4100
      2 C2         -9.4603    4.8945   56.7171 C.1     1  ZINC000002634904    0.2500
      3 C3         -8.4165    4.4526   55.8419 C.ar    1  ZINC000002634904   -0.0400
      4 C4         -8.6545    3.4157   54.9353 C.ar    1  ZINC000002634904   -0.0500
      5 C5         -7.6485    2.9934   54.0953 C.ar    1  ZINC000002634904   -0.1400
      6 C6         -6.3965    3.5973   54.1483 C.ar    1  ZINC000002634904    0.1700
      7 N7         -5.3794    3.1666   53.2955 N.am    1  ZINC000002634904   -0.6700
      8 C8         -5.0614    3.8926   52.2055 C.2     1  ZINC000002634904    0.5400
      9 O9         -5.6593    4.9203   51.9657 O.2     1  ZINC000002634904   -0.5000
     10 C10        -3.9630    3.4275   51.2845 C.3     1  ZINC000002634904   -0.1700
     11 S11        -2.3551    3.8307   52.0112 S.3     1  ZINC000002634904    0.1300
     12 C12        -1.2894    3.2832   50.7193 C.ar    1  ZINC000002634904    0.2100
     13 N13        -0.0452    3.7443   50.6587 N.ar    1  ZINC000002634904   -0.2900
     14 N14         0.7681    3.3724   49.7332 N.ar    1  ZINC000002634904   -0.1600
     15 C15         0.3792    2.5068   48.8030 C.ar    1  ZINC000002634904    0.0600
     16 C16         1.3142    2.0771   47.7370 C.ar    1  ZINC000002634904   -0.0500
     17 C17         1.4838    2.8614   46.5966 C.ar    1  ZINC000002634904   -0.0800
     18 C18         2.3560    2.4560   45.6071 C.ar    1  ZINC000002634904   -0.1200
     19 C19         3.0611    1.2738   45.7447 C.ar    1  ZINC000002634904   -0.1000
     20 C20         2.8971    0.4914   46.8737 C.ar    1  ZINC000002634904   -0.1200
     21 C21         2.0324    0.8895   47.8728 C.ar    1  ZINC000002634904   -0.0800
     22 C22        -0.9366    2.0037   48.8467 C.ar    1  ZINC000002634904    0.2300
     23 C23        -1.4120    1.0369   47.8297 C.ar    1  ZINC000002634904   -0.0700
     24 C24        -1.7877    1.4818   46.5626 C.ar    1  ZINC000002634904   -0.0700
     25 C25        -2.2292    0.5766   45.6194 C.ar    1  ZINC000002634904   -0.1200
     26 C26        -2.2996   -0.7700   45.9287 C.ar    1  ZINC000002634904   -0.0900
     27 C27        -1.9288   -1.2173   47.1842 C.ar    1  ZINC000002634904   -0.1200
     28 C28        -1.4801   -0.3223   48.1338 C.ar    1  ZINC000002634904   -0.0700
     29 N29        -1.7408    2.4125   49.8253 N.ar    1  ZINC000002634904   -0.4400
     30 C30        -6.1561    4.6297   55.0490 C.ar    1  ZINC000002634904   -0.1200
     31 C31        -7.1589    5.0609   55.8883 C.ar    1  ZINC000002634904   -0.0500
     32 H32        -9.6262    2.9462   54.8939 H       1  ZINC000002634904    0.1400
     33 H33        -7.8316    2.1921   53.3948 H       1  ZINC000002634904    0.1400
     34 H34        -4.9011    2.3448   53.4873 H       1  ZINC000002634904    0.4200
     35 H35        -4.0384    2.3492   51.1446 H       1  ZINC000002634904    0.1300
     36 H36        -4.0614    3.9266   50.3205 H       1  ZINC000002634904    0.1300
     37 H37         0.9333    3.7842   46.4878 H       1  ZINC000002634904    0.1300
     38 H38         2.4881    3.0626   44.7235 H       1  ZINC000002634904    0.1300
     39 H39         3.7421    0.9602   44.9673 H       1  ZINC000002634904    0.1300
     40 H40         3.4502   -0.4306   46.9756 H       1  ZINC000002634904    0.1300
     41 H41         1.9054    0.2781   48.7539 H       1  ZINC000002634904    0.1200
     42 H42        -1.7334    2.5329   46.3201 H       1  ZINC000002634904    0.1300
     43 H43        -2.5207    0.9200   44.6378 H       1  ZINC000002634904    0.1300
     44 H44        -2.6458   -1.4747   45.1872 H       1  ZINC000002634904    0.1300
     45 H45        -1.9862   -2.2697   47.4200 H       1  ZINC000002634904    0.1300
     46 H46        -1.1909   -0.6728   49.1136 H       1  ZINC000002634904    0.1300
     47 H47        -5.1829    5.0964   55.0871 H       1  ZINC000002634904    0.1500
     48 H48        -6.9717    5.8628   56.5871 H       1  ZINC000002634904    0.1400
@<TRIPOS>BOND
     1     1     2    3
     2     2     3    1
     3     3    31   ar
     4     3     4   ar
     5     4     5   ar
     6     4    32    1
     7     5     6   ar
     8     5    33    1
     9     6     7    1
    10     6    30   ar
    11     7     8   am
    12     7    34    1
    13     8     9    2
    14     8    10    1
    15    10    11    1
    16    10    35    1
    17    10    36    1
    18    11    12    1
    19    12    29   ar
    20    12    13   ar
    21    13    14   ar
    22    14    15   ar
    23    15    16    1
    24    15    22   ar
    25    16    21   ar
    26    16    17   ar
    27    17    18   ar
    28    17    37    1
    29    18    19   ar
    30    18    38    1
    31    19    20   ar
    32    19    39    1
    33    20    21   ar
    34    20    40    1
    35    21    41    1
    36    22    23    1
    37    22    29   ar
    38    23    28   ar
    39    23    24   ar
    40    24    25   ar
    41    24    42    1
    42    25    26   ar
    43    25    43    1
    44    26    27   ar
    45    26    44    1
    46    27    28   ar
    47    27    45    1
    48    28    46    1
    49    30    31   ar
    50    30    47    1
    51    31    48    1
@<TRIPOS>SUBSTRUCTURE
     1 ZINC000002634904        1 TEMP              0 ****  ****    0 ROOT


##########                                Name:    ZINC000992031068
##########                DOCK_Rotatable_Bonds:                   8
##########                         Heavy_Atoms:                  25
##########                    Molecular_Weight:             342.401
##########                DOCK_Rotatable_Bonds:                   8
##########                       Formal_Charge:           0.0199999
##########                     HBond_Acceptors:                   8
##########                        HBond_Donors:                   2
##########                         Heavy_Atoms:                  25
##########                          Grid_Score:          -33.328587
##########                     Grid_vdw_energy:          -32.032169
##########                      Grid_es_energy:           -1.296417
##########           Internal_energy_repulsive:            9.261724

@<TRIPOS>MOLECULE
ZINC000992031068
 47 49 1 0 0
SMALL
USER_CHARGES


@<TRIPOS>ATOM
      1 C1         -9.6420    2.1682   53.0999 C.3     1  ZINC000992031068   -0.1100
      2 C2         -9.6479    0.7161   52.6966 C.ar    1  ZINC000992031068    0.1800
      3 C3        -10.2824   -0.2304   53.4883 C.ar    1  ZINC000992031068   -0.1700
      4 C4        -10.2605   -1.5620   53.0719 C.ar    1  ZINC000992031068    0.1300
      5 C5        -10.9236   -2.6163   53.8797 C.2     1  ZINC000992031068    0.5700
      6 O6        -10.9251   -3.7675   53.4921 O.2     1  ZINC000992031068   -0.5200
      7 N7        -11.5241   -2.2962   55.0430 N.am    1  ZINC000992031068   -0.7100
      8 C8        -12.1771   -3.3369   55.8410 C.3     1  ZINC000992031068    0.1300
      9 C9        -13.1031   -2.6851   56.8698 C.3     1  ZINC000992031068   -0.1200
     10 C10       -12.7388   -3.0196   58.3259 C.3     1  ZINC000992031068   -0.1400
     11 C11       -13.0637   -1.5544   58.6611 C.3     1  ZINC000992031068    0.1200
     12 N12       -12.1341   -0.9517   59.6197 N.am    1  ZINC000992031068   -0.7200
     13 C13       -12.1575   -1.3332   60.9122 C.2     1  ZINC000992031068    0.5200
     14 O14       -12.9469   -2.1766   61.2812 O.2     1  ZINC000992031068   -0.5200
     15 C15       -11.2025   -0.7119   61.8985 C.3     1  ZINC000992031068   -0.0800
     16 C16       -10.0764   -0.0423   61.1539 C.2     1  ZINC000992031068    0.1000
     17 C17       -10.0387    1.2518   60.7601 C.2     1  ZINC000992031068   -0.2500
     18 C18        -8.8222    1.4666   60.1038 C.2     1  ZINC000992031068    0.0500
     19 N19        -8.1538    0.3420   60.1036 N.2     1  ZINC000992031068   -0.2900
     20 N20        -8.9224   -0.6243   60.7654 N.pl3   1  ZINC000992031068   -0.3700
     21 C21        -8.5444   -2.0220   60.9883 C.3     1  ZINC000992031068    0.1000
     22 C22       -12.7341   -1.2281   57.1950 C.3     1  ZINC000992031068   -0.1400
     23 N23        -9.6356   -1.8711   51.9383 N.ar    1  ZINC000992031068   -0.5000
     24 C24        -9.0470   -0.9395   51.2192 C.ar    1  ZINC000992031068    0.3000
     25 N25        -9.0532    0.3287   51.5813 N.ar    1  ZINC000992031068   -0.5100
     26 H26       -10.5159    2.6657   52.6792 H       1  ZINC000992031068    0.0900
     27 H27        -9.6693    2.2436   54.1870 H       1  ZINC000992031068    0.0900
     28 H28        -8.7366    2.6457   52.7251 H       1  ZINC000992031068    0.0900
     29 H29       -10.7800    0.0559   54.4031 H       1  ZINC000992031068    0.1600
     30 H30       -11.5240   -1.3767   55.3520 H       1  ZINC000992031068    0.4100
     31 H31       -12.7600   -3.9847   55.1862 H       1  ZINC000992031068    0.0700
     32 H32       -11.4201   -3.9280   56.3566 H       1  ZINC000992031068    0.0800
     33 H33       -14.1588   -2.8271   56.6389 H       1  ZINC000992031068    0.1000
     34 H34       -13.4163   -3.7348   58.7922 H       1  ZINC000992031068    0.0800
     35 H35       -11.6887   -3.2769   58.4651 H       1  ZINC000992031068    0.0900
     36 H36       -14.1086   -1.3877   58.9227 H       1  ZINC000992031068    0.1200
     37 H37       -11.5018   -0.2780   59.3243 H       1  ZINC000992031068    0.4000
     38 H38       -11.7311    0.0279   62.4996 H       1  ZINC000992031068    0.1200
     39 H39       -10.7975   -1.4868   62.5495 H       1  ZINC000992031068    0.1100
     40 H40       -10.8114    1.9884   60.9234 H       1  ZINC000992031068    0.1500
     41 H41        -8.4922    2.3997   59.6714 H       1  ZINC000992031068    0.1800
     42 H42        -8.0108   -2.1075   61.9349 H       1  ZINC000992031068    0.0800
     43 H43        -9.4414   -2.6405   61.0197 H       1  ZINC000992031068    0.0800
     44 H44        -7.8997   -2.3579   60.1761 H       1  ZINC000992031068    0.0900
     45 H45       -11.6828   -0.9955   57.0250 H       1  ZINC000992031068    0.0900
     46 H46       -13.4080   -0.4969   56.7483 H       1  ZINC000992031068    0.0800
     47 H47        -8.5479   -1.2210   50.3039 H       1  ZINC000992031068    0.2100
@<TRIPOS>BOND
     1     1     2    1
     2     1    26    1
     3     1    27    1
     4     1    28    1
     5     2    25   ar
     6     2     3   ar
     7     3     4   ar
     8     3    29    1
     9     4     5    1
    10     4    23   ar
    11     5     6    2
    12     5     7   am
    13     7     8    1
    14     7    30    1
    15     8     9    1
    16     8    31    1
    17     8    32    1
    18     9    22    1
    19     9    10    1
    20     9    33    1
    21    10    11    1
    22    10    34    1
    23    10    35    1
    24    11    12    1
    25    11    22    1
    26    11    36    1
    27    12    13   am
    28    12    37    1
    29    13    14    2
    30    13    15    1
    31    15    16    1
    32    15    38    1
    33    15    39    1
    34    16    20    1
    35    16    17    2
    36    17    18    1
    37    17    40    1
    38    18    19    2
    39    18    41    1
    40    19    20    1
    41    20    21    1
    42    21    42    1
    43    21    43    1
    44    21    44    1
    45    22    45    1
    46    22    46    1
    47    23    24   ar
    48    24    25   ar
    49    24    47    1
@<TRIPOS>SUBSTRUCTURE
     1 ZINC000992031068        1 TEMP              0 ****  ****    0 ROOT


##########                                Name:    ZINC000668548901
##########                DOCK_Rotatable_Bonds:                   9
##########                         Heavy_Atoms:                  26
##########                    Molecular_Weight:             374.464
##########                DOCK_Rotatable_Bonds:                   9
##########                       Formal_Charge:         3.53903e-07
##########                     HBond_Acceptors:                   8
##########                        HBond_Donors:                   3
##########                         Heavy_Atoms:                  26
##########                          Grid_Score:          -33.299274
##########                     Grid_vdw_energy:          -30.076735
##########                      Grid_es_energy:           -3.222540
##########           Internal_energy_repulsive:           15.072073

@<TRIPOS>MOLECULE
ZINC000668548901
 48 50 1 0 0
SMALL
USER_CHARGES


@<TRIPOS>ATOM
      1 O1         -1.2911    2.6328   53.2803 O.2     1  ZINC000668548901   -0.5700
      2 C2         -2.1967    3.4391   53.3699 C.2     1  ZINC000668548901    0.7100
      3 N3         -2.6867    4.0280   52.2610 N.am    1  ZINC000668548901   -0.6800
      4 C4         -2.1510    3.7163   51.0105 C.ar    1  ZINC000668548901    0.2200
      5 C5         -1.0868    4.4511   50.4852 C.ar    1  ZINC000668548901   -0.1700
      6 C6         -0.5829    4.1153   49.2468 C.ar    1  ZINC000668548901    0.1200
      7 N7         -1.0928    3.1126   48.5561 N.ar    1  ZINC000668548901   -0.4300
      8 C8         -2.1033    2.3891   49.0175 C.ar    1  ZINC000668548901    0.1100
      9 S9         -2.7401    1.0624   48.0485 S.3     1  ZINC000668548901    0.0900
     10 C10        -1.5013   -0.1798   48.2143 C.ar    1  ZINC000668548901    0.0900
     11 C11        -1.8743   -1.5162   48.3149 C.ar    1  ZINC000668548901   -0.1500
     12 C12        -0.8913   -2.4810   48.4441 C.ar    1  ZINC000668548901   -0.0700
     13 C13         0.4364   -2.0752   48.4684 C.ar    1  ZINC000668548901   -0.1700
     14 C14         0.7351   -0.7310   48.3638 C.ar    1  ZINC000668548901    0.1000
     15 N15        -0.2230    0.1669   48.2365 N.ar    1  ZINC000668548901   -0.4200
     16 C16        -2.6606    2.6623   50.2595 C.ar    1  ZINC000668548901   -0.1800
     17 N17        -2.7141    3.7400   54.5774 N.am    1  ZINC000668548901   -0.7200
     18 C18        -2.1814    3.1000   55.7827 C.3     1  ZINC000668548901    0.1700
     19 H19        -1.6857    2.1681   55.5103 H       1  ZINC000668548901    0.1000
     20 C20        -3.3275    2.8038   56.7520 C.3     1  ZINC000668548901    0.0600
     21 O21        -4.3165    2.0110   56.0922 O.3     1  ZINC000668548901   -0.5700
     22 C22        -1.1743    4.0358   56.4544 C.3     1  ZINC000668548901   -0.1300
     23 H23        -0.3441    4.2260   55.7742 H       1  ZINC000668548901    0.1000
     24 C24        -0.6468    3.3848   57.7366 C.3     1  ZINC000668548901   -0.1200
     25 C25         0.3002    4.3619   58.4400 C.3     1  ZINC000668548901   -0.1600
     26 C26        -0.4436    5.6712   58.7166 C.3     1  ZINC000668548901    0.0600
     27 O27        -0.9344    6.2077   57.4865 O.3     1  ZINC000668548901   -0.3800
     28 C28        -1.8607    5.3582   56.8062 C.3     1  ZINC000668548901    0.0700
     29 H29        -3.4119    4.6682   52.3321 H       1  ZINC000668548901    0.4100
     30 H30        -0.6633    5.2737   51.0424 H       1  ZINC000668548901    0.1500
     31 H31         0.2405    4.6806   48.8359 H       1  ZINC000668548901    0.1600
     32 H32        -2.9169   -1.7967   48.2928 H       1  ZINC000668548901    0.1400
     33 H33        -1.1507   -3.5262   48.5246 H       1  ZINC000668548901    0.1400
     34 H34         1.2276   -2.8035   48.5685 H       1  ZINC000668548901    0.1400
     35 H35         1.7664   -0.4111   48.3827 H       1  ZINC000668548901    0.1600
     36 H36        -3.4837    2.0712   50.6329 H       1  ZINC000668548901    0.1400
     37 H37        -3.4392    4.3803   54.6485 H       1  ZINC000668548901    0.4000
     38 H38        -2.9424    2.2604   57.6148 H       1  ZINC000668548901    0.0500
     39 H39        -3.7748    3.7412   57.0829 H       1  ZINC000668548901    0.0600
     40 H40        -3.9908    1.1558   55.7797 H       1  ZINC000668548901    0.3800
     41 H41        -1.4821    3.1482   58.3957 H       1  ZINC000668548901    0.0700
     42 H42        -0.1078    2.4710   57.4864 H       1  ZINC000668548901    0.0700
     43 H43         0.6372    3.9286   59.3817 H       1  ZINC000668548901    0.0800
     44 H44         1.1603    4.5597   57.8005 H       1  ZINC000668548901    0.0700
     45 H45        -1.2798    5.4793   59.3889 H       1  ZINC000668548901    0.0500
     46 H46         0.2379    6.3856   59.1787 H       1  ZINC000668548901    0.1000
     47 H47        -2.1999    5.8477   55.8933 H       1  ZINC000668548901    0.1000
     48 H48        -2.7158    5.1615   57.4527 H       1  ZINC000668548901    0.0500
@<TRIPOS>BOND
     1     1     2    2
     2     2     3   am
     3     2    17   am
     4     3     4    1
     5     3    29    1
     6     4    16   ar
     7     4     5   ar
     8     5     6   ar
     9     5    30    1
    10     6     7   ar
    11     6    31    1
    12     7     8   ar
    13     8     9    1
    14     8    16   ar
    15     9    10    1
    16    10    15   ar
    17    10    11   ar
    18    11    12   ar
    19    11    32    1
    20    12    13   ar
    21    12    33    1
    22    13    14   ar
    23    13    34    1
    24    14    15   ar
    25    14    35    1
    26    16    36    1
    27    17    18    1
    28    17    37    1
    29    18    19    1
    30    18    20    1
    31    18    22    1
    32    20    21    1
    33    20    38    1
    34    20    39    1
    35    21    40    1
    36    22    23    1
    37    22    28    1
    38    22    24    1
    39    24    25    1
    40    24    41    1
    41    24    42    1
    42    25    26    1
    43    25    43    1
    44    25    44    1
    45    26    27    1
    46    26    45    1
    47    26    46    1
    48    27    28    1
    49    28    47    1
    50    28    48    1
@<TRIPOS>SUBSTRUCTURE
     1 ZINC000668548901        1 TEMP              0 ****  ****    0 ROOT


##########                                Name:    ZINC000807524472
##########                DOCK_Rotatable_Bonds:                   9
##########                         Heavy_Atoms:                  28
##########                    Molecular_Weight:             410.534
##########                DOCK_Rotatable_Bonds:                   9
##########                       Formal_Charge:           0.0200006
##########                     HBond_Acceptors:                   8
##########                        HBond_Donors:                   0
##########                         Heavy_Atoms:                  28
##########                          Grid_Score:          -33.257835
##########                     Grid_vdw_energy:          -32.175095
##########                      Grid_es_energy:           -1.082742
##########           Internal_energy_repulsive:           15.665145

@<TRIPOS>MOLECULE
ZINC000807524472
 58 60 1 0 0
SMALL
USER_CHARGES


@<TRIPOS>ATOM
      1 C1        -13.9582   -1.2137   62.7289 C.3     1  ZINC000807524472   -0.1500
      2 C2        -14.4151   -0.9240   61.2976 C.3     1  ZINC000807524472    0.0600
      3 O3        -14.3395   -2.1217   60.5219 O.3     1  ZINC000807524472   -0.3800
      4 C4        -14.7832   -1.9689   59.1721 C.3     1  ZINC000807524472    0.0600
      5 C5        -14.8074   -3.3358   58.4853 C.3     1  ZINC000807524472    0.0700
      6 O6        -13.5108   -3.9731   58.6299 O.3     1  ZINC000807524472   -0.3500
      7 C7        -12.6074   -3.7505   57.6549 C.2     1  ZINC000807524472    0.5000
      8 O8        -12.5474   -4.4995   56.6998 O.2     1  ZINC000807524472   -0.4600
      9 C9        -11.6929   -2.5996   57.7469 C.ar    1  ZINC000807524472   -0.1200
     10 C10       -11.0625   -2.2973   58.9571 C.ar    1  ZINC000807524472    0.0400
     11 C11       -10.2078   -1.2197   59.0361 C.ar    1  ZINC000807524472   -0.7000
     12 S12        -9.4140   -0.8413   60.5630 S.o2    1  ZINC000807524472    2.6900
     13 O13       -10.1521   -1.5112   61.5758 O.2     1  ZINC000807524472   -0.9500
     14 O14        -8.0231   -1.0427   60.3529 O.2     1  ZINC000807524472   -0.9500
     15 N15        -9.6163    0.7801   60.8321 N.am    1  ZINC000807524472   -0.9900
     16 C16        -8.4533    1.6696   60.9535 C.3     1  ZINC000807524472    0.1200
     17 C17        -8.6120    2.8271   59.9626 C.3     1  ZINC000807524472   -0.1400
     18 C18        -9.9578    3.5160   60.2004 C.3     1  ZINC000807524472   -0.1200
     19 C19       -11.0929    2.5175   59.9627 C.3     1  ZINC000807524472   -0.1400
     20 C20       -10.9624    1.3576   60.9477 C.3     1  ZINC000807524472    0.1200
     21 C21        -9.9687   -0.4320   57.9213 C.ar    1  ZINC000807524472    0.0200
     22 C22       -10.5835   -0.7168   56.7192 C.ar    1  ZINC000807524472   -0.1800
     23 C23       -11.4442   -1.8025   56.6176 C.ar    1  ZINC000807524472    0.2000
     24 N24       -12.0637   -2.0915   55.4093 N.3     1  ZINC000807524472   -0.4800
     25 C25       -12.8232   -0.9182   54.9066 C.3     1  ZINC000807524472    0.0400
     26 C26       -12.9786   -1.2178   53.3944 C.3     1  ZINC000807524472   -0.1200
     27 C27       -11.6262   -1.8727   53.0310 C.3     1  ZINC000807524472   -0.1300
     28 C28       -11.0656   -2.4039   54.3634 C.3     1  ZINC000807524472    0.0400
     29 H29       -12.9295   -1.5740   62.7160 H       1  ZINC000807524472    0.0600
     30 H30       -14.0159   -0.3002   63.3206 H       1  ZINC000807524472    0.0700
     31 H31       -14.6037   -1.9734   63.1696 H       1  ZINC000807524472    0.0700
     32 H32       -15.4438   -0.5638   61.3105 H       1  ZINC000807524472    0.0500
     33 H33       -13.7696   -0.1643   60.8569 H       1  ZINC000807524472    0.0500
     34 H34       -15.7858   -1.5411   59.1655 H       1  ZINC000807524472    0.0600
     35 H35       -14.1019   -1.3061   58.6385 H       1  ZINC000807524472    0.0700
     36 H36       -15.5726   -3.9604   58.9461 H       1  ZINC000807524472    0.0900
     37 H37       -15.0327   -3.2066   57.4267 H       1  ZINC000807524472    0.0800
     38 H38       -11.2454   -2.9074   59.8292 H       1  ZINC000807524472    0.1600
     39 H39        -8.3984    2.0627   61.9687 H       1  ZINC000807524472    0.0800
     40 H40        -7.5434    1.1148   60.7246 H       1  ZINC000807524472    0.0900
     41 H41        -7.8050    3.5449   60.1092 H       1  ZINC000807524472    0.0800
     42 H42        -8.5759    2.4413   58.9438 H       1  ZINC000807524472    0.0700
     43 H43       -10.0031    3.8798   61.2270 H       1  ZINC000807524472    0.0700
     44 H44       -10.0625    4.3554   59.5130 H       1  ZINC000807524472    0.0700
     45 H45       -12.0516    3.0149   60.1096 H       1  ZINC000807524472    0.0800
     46 H46       -11.0334    2.1346   58.9440 H       1  ZINC000807524472    0.0700
     47 H47       -11.7087    0.5971   60.7176 H       1  ZINC000807524472    0.0900
     48 H48       -11.1110    1.7226   61.9639 H       1  ZINC000807524472    0.0800
     49 H49        -9.2969    0.4106   57.9939 H       1  ZINC000807524472    0.1500
     50 H50       -10.3920   -0.0976   55.8553 H       1  ZINC000807524472    0.1400
     51 H51       -13.7989   -0.8562   55.3887 H       1  ZINC000807524472    0.0900
     52 H52       -12.2578    0.0008   55.0606 H       1  ZINC000807524472    0.0500
     53 H53       -13.8017   -1.9110   53.2211 H       1  ZINC000807524472    0.0800
     54 H54       -13.1243   -0.2959   52.8315 H       1  ZINC000807524472    0.0800
     55 H55       -11.7795   -2.6939   52.3309 H       1  ZINC000807524472    0.0800
     56 H56       -10.9497   -1.1321   52.6044 H       1  ZINC000807524472    0.0700
     57 H57       -10.1211   -1.9101   54.5920 H       1  ZINC000807524472    0.0500
     58 H58       -10.9185   -3.4820   54.3007 H       1  ZINC000807524472    0.0900
@<TRIPOS>BOND
     1     1     2    1
     2     1    29    1
     3     1    30    1
     4     1    31    1
     5     2     3    1
     6     2    32    1
     7     2    33    1
     8     3     4    1
     9     4     5    1
    10     4    34    1
    11     4    35    1
    12     5     6    1
    13     5    36    1
    14     5    37    1
    15     6     7    1
    16     7     8    2
    17     7     9    1
    18     9    23   ar
    19     9    10   ar
    20    10    11   ar
    21    10    38    1
    22    11    12    1
    23    11    21   ar
    24    12    13    2
    25    12    14    2
    26    12    15   am
    27    15    20    1
    28    15    16    1
    29    16    17    1
    30    16    39    1
    31    16    40    1
    32    17    18    1
    33    17    41    1
    34    17    42    1
    35    18    19    1
    36    18    43    1
    37    18    44    1
    38    19    20    1
    39    19    45    1
    40    19    46    1
    41    20    47    1
    42    20    48    1
    43    21    22   ar
    44    21    49    1
    45    22    23   ar
    46    22    50    1
    47    23    24    1
    48    24    28    1
    49    24    25    1
    50    25    26    1
    51    25    51    1
    52    25    52    1
    53    26    27    1
    54    26    53    1
    55    26    54    1
    56    27    28    1
    57    27    55    1
    58    27    56    1
    59    28    57    1
    60    28    58    1
@<TRIPOS>SUBSTRUCTURE
     1 ZINC000807524472        1 TEMP              0 ****  ****    0 ROOT


##########                                Name:    ZINC001342153661
##########                DOCK_Rotatable_Bonds:                   8
##########                         Heavy_Atoms:                  29
##########                    Molecular_Weight:             395.548
##########                DOCK_Rotatable_Bonds:                   8
##########                       Formal_Charge:          -0.0400005
##########                     HBond_Acceptors:                   6
##########                        HBond_Donors:                   1
##########                         Heavy_Atoms:                  29
##########                          Grid_Score:          -33.255856
##########                     Grid_vdw_energy:          -32.540489
##########                      Grid_es_energy:           -0.715367
##########           Internal_energy_repulsive:           13.017229

@<TRIPOS>MOLECULE
ZINC001342153661
 62 65 1 0 0
SMALL
USER_CHARGES


@<TRIPOS>ATOM
      1 C1         -9.6818    1.7623   56.9223 C.2     1  ZINC001342153661   -0.1400
      2 C2         -9.0852    1.4738   58.0524 C.2     1  ZINC001342153661   -0.1600
      3 C3         -7.5842    1.3484   58.1014 C.3     1  ZINC001342153661   -0.1200
      4 C4         -9.8999    1.2671   59.3032 C.3     1  ZINC001342153661    0.1500
      5 N5        -10.0715   -0.1679   59.5428 N.pl3   1  ZINC001342153661   -0.4700
      6 C6         -9.4511   -0.9255   60.4973 C.2     1  ZINC001342153661    0.1800
      7 C7         -8.4505   -0.4381   61.5133 C.3     1  ZINC001342153661   -0.0600
      8 C8         -9.1897    0.1926   62.6952 C.3     1  ZINC001342153661    0.1600
      9 H9         -9.8151    1.0107   62.3377 H       1  ZINC001342153661    0.1000
     10 O10       -10.0098   -0.7936   63.3252 O.3     1  ZINC001342153661   -0.5400
     11 C11        -8.1884    0.7228   63.6889 C.ar    1  ZINC001342153661   -0.1700
     12 C12        -7.7048    2.0169   63.5755 C.ar    1  ZINC001342153661   -0.0600
     13 C13        -6.7850    2.4622   64.5129 C.ar    1  ZINC001342153661   -0.1700
     14 C14        -6.3840    1.6072   65.5217 C.ar    1  ZINC001342153661    0.1000
     15 N15        -6.8655    0.3819   65.5986 N.ar    1  ZINC001342153661   -0.4800
     16 C16        -7.7451   -0.0733   64.7282 C.ar    1  ZINC001342153661    0.1100
     17 N17        -9.8860   -2.1466   60.3659 N.2     1  ZINC001342153661   -0.2700
     18 N18       -10.7324   -2.2117   59.4009 N.2     1  ZINC001342153661   -0.3200
     19 C19       -10.8879   -1.0247   58.8636 C.2     1  ZINC001342153661    0.3600
     20 N20       -11.7180   -0.7035   57.8015 N.3     1  ZINC001342153661   -0.4500
     21 C21       -13.1160   -1.0327   58.1078 C.3     1  ZINC001342153661    0.0500
     22 C22       -14.0185   -0.5334   56.9772 C.3     1  ZINC001342153661   -0.1200
     23 C23       -13.5952   -1.1947   55.6627 C.3     1  ZINC001342153661   -0.1200
     24 C24       -12.1222   -0.8763   55.3916 C.3     1  ZINC001342153661   -0.0800
     25 H25       -11.9978    0.2004   55.2765 H       1  ZINC001342153661    0.0800
     26 C26       -11.6746   -1.5821   54.1100 C.3     1  ZINC001342153661   -0.0800
     27 C27       -12.4295   -1.0103   52.8844 C.3     1  ZINC001342153661   -0.1200
     28 C28       -11.4792   -1.3488   51.7091 C.3     1  ZINC001342153661   -0.1300
     29 C29       -10.0667   -1.1296   52.2896 C.3     1  ZINC001342153661   -0.1300
     30 C30       -10.1910   -1.2779   53.8162 C.3     1  ZINC001342153661   -0.1200
     31 C31       -11.2745   -1.3657   56.5681 C.3     1  ZINC001342153661    0.0800
     32 H32        -9.0980    1.9104   56.0259 H       1  ZINC001342153661    0.1000
     33 H33       -10.7578    1.8478   56.8863 H       1  ZINC001342153661    0.1100
     34 H34        -7.1418    2.3340   58.2452 H       1  ZINC001342153661    0.0700
     35 H35        -7.3007    0.6986   58.9293 H       1  ZINC001342153661    0.0600
     36 H36        -7.2244    0.9217   57.1651 H       1  ZINC001342153661    0.0700
     37 H37        -9.3843    1.7180   60.1512 H       1  ZINC001342153661    0.1000
     38 H38       -10.8770    1.7346   59.1818 H       1  ZINC001342153661    0.1000
     39 H39        -7.8519   -1.2781   61.8657 H       1  ZINC001342153661    0.1100
     40 H40        -7.7987    0.3051   61.0540 H       1  ZINC001342153661    0.1000
     41 H41        -9.5156   -1.5371   63.6967 H       1  ZINC001342153661    0.3800
     42 H42        -8.0361    2.6629   62.7758 H       1  ZINC001342153661    0.1300
     43 H43        -6.3868    3.4645   64.4550 H       1  ZINC001342153661    0.1400
     44 H44        -5.6678    1.9464   66.2555 H       1  ZINC001342153661    0.1600
     45 H45        -8.1169   -1.0829   64.8234 H       1  ZINC001342153661    0.1500
     46 H46       -13.2214   -2.1132   58.2063 H       1  ZINC001342153661    0.0500
     47 H47       -13.4056   -0.5528   59.0427 H       1  ZINC001342153661    0.0700
     48 H48       -15.0543   -0.7917   57.1975 H       1  ZINC001342153661    0.0800
     49 H49       -13.9240    0.5488   56.8872 H       1  ZINC001342153661    0.0700
     50 H50       -13.7264   -2.2741   55.7392 H       1  ZINC001342153661    0.0600
     51 H51       -14.2072   -0.8092   54.8474 H       1  ZINC001342153661    0.0700
     52 H52       -11.8347   -2.6571   54.1918 H       1  ZINC001342153661    0.0800
     53 H53       -13.3920   -1.5061   52.7578 H       1  ZINC001342153661    0.0700
     54 H54       -12.5585    0.0679   52.9786 H       1  ZINC001342153661    0.0700
     55 H55       -11.6081   -2.3863   51.4008 H       1  ZINC001342153661    0.0600
     56 H56       -11.6553   -0.6758   50.8700 H       1  ZINC001342153661    0.0600
     57 H57        -9.3808   -1.8799   51.8962 H       1  ZINC001342153661    0.0600
     58 H58        -9.7112   -0.1301   52.0392 H       1  ZINC001342153661    0.0600
     59 H59        -9.8957   -0.3504   54.3067 H       1  ZINC001342153661    0.0600
     60 H60        -9.5654   -2.1001   54.1635 H       1  ZINC001342153661    0.0600
     61 H61       -10.2268   -1.1278   56.3846 H       1  ZINC001342153661    0.0900
     62 H62       -11.3887   -2.4446   56.6739 H       1  ZINC001342153661    0.0500
@<TRIPOS>BOND
     1     1     2    2
     2     1    32    1
     3     1    33    1
     4     2     3    1
     5     2     4    1
     6     3    34    1
     7     3    35    1
     8     3    36    1
     9     4     5    1
    10     4    37    1
    11     4    38    1
    12     5    19    1
    13     5     6    1
    14     6     7    1
    15     6    17    2
    16     7     8    1
    17     7    39    1
    18     7    40    1
    19     8     9    1
    20     8    10    1
    21     8    11    1
    22    10    41    1
    23    11    16   ar
    24    11    12   ar
    25    12    13   ar
    26    12    42    1
    27    13    14   ar
    28    13    43    1
    29    14    15   ar
    30    14    44    1
    31    15    16   ar
    32    16    45    1
    33    17    18    1
    34    18    19    2
    35    19    20    1
    36    20    31    1
    37    20    21    1
    38    21    22    1
    39    21    46    1
    40    21    47    1
    41    22    23    1
    42    22    48    1
    43    22    49    1
    44    23    24    1
    45    23    50    1
    46    23    51    1
    47    24    25    1
    48    24    26    1
    49    24    31    1
    50    26    30    1
    51    26    27    1
    52    26    52    1
    53    27    28    1
    54    27    53    1
    55    27    54    1
    56    28    29    1
    57    28    55    1
    58    28    56    1
    59    29    30    1
    60    29    57    1
    61    29    58    1
    62    30    59    1
    63    30    60    1
    64    31    61    1
    65    31    62    1
@<TRIPOS>SUBSTRUCTURE
     1 ZINC001342153661        1 TEMP              0 ****  ****    0 ROOT


##########                                Name:    ZINC000494558165
##########                DOCK_Rotatable_Bonds:                  11
##########                         Heavy_Atoms:                  28
##########                    Molecular_Weight:             409.506
##########                DOCK_Rotatable_Bonds:                  11
##########                       Formal_Charge:        -6.55651e-07
##########                     HBond_Acceptors:                   9
##########                        HBond_Donors:                   3
##########                         Heavy_Atoms:                  28
##########                          Grid_Score:          -33.239857
##########                     Grid_vdw_energy:          -30.329901
##########                      Grid_es_energy:           -2.909957
##########           Internal_energy_repulsive:           33.701420

@<TRIPOS>MOLECULE
ZINC000494558165
 55 57 1 0 0
SMALL
USER_CHARGES


@<TRIPOS>ATOM
      1 O1        -10.6397   -2.8109   60.1889 O.2     1  ZINC000494558165   -0.4400
      2 C2        -10.5683   -1.7519   59.6031 C.2     1  ZINC000494558165    0.5100
      3 C3        -11.2236   -1.5904   58.2557 C.3     1  ZINC000494558165    0.0300
      4 N4        -12.6800   -1.5024   58.4269 N.3     1  ZINC000494558165   -0.5000
      5 C5        -13.0649   -0.2079   59.0049 C.3     1  ZINC000494558165    0.0500
      6 C6        -13.7564   -0.4356   60.3505 C.3     1  ZINC000494558165   -0.1100
      7 C7        -15.2503   -0.6742   60.1223 C.3     1  ZINC000494558165    0.0800
      8 O8        -15.5075   -2.0793   60.0816 O.3     1  ZINC000494558165   -0.5700
      9 C9        -13.3749   -1.7384   57.1543 C.3     1  ZINC000494558165    0.1200
     10 H10       -14.1950   -1.0304   57.0351 H       1  ZINC000494558165    0.1000
     11 C11       -13.9046   -3.1868   57.0938 C.3     1  ZINC000494558165   -0.1200
     12 C12       -12.7485   -3.9336   56.3951 C.3     1  ZINC000494558165   -0.0900
     13 C13       -12.0457   -2.8840   55.5611 C.ar    1  ZINC000494558165   -0.0900
     14 C14       -11.1613   -3.0216   54.5048 C.ar    1  ZINC000494558165   -0.1100
     15 C15       -10.6379   -1.9028   53.8860 C.ar    1  ZINC000494558165   -0.1100
     16 C16       -10.9979   -0.6416   54.3221 C.ar    1  ZINC000494558165   -0.1200
     17 C17       -11.8802   -0.5023   55.3759 C.ar    1  ZINC000494558165   -0.1000
     18 C18       -12.4062   -1.6198   55.9972 C.ar    1  ZINC000494558165   -0.1300
     19 N19        -9.9076   -0.7173   60.1594 N.am    1  ZINC000494558165   -0.6900
     20 C20        -9.3215   -0.8617   61.3645 C.2     1  ZINC000494558165    0.7000
     21 O21        -9.3876   -1.9253   61.9489 O.2     1  ZINC000494558165   -0.5200
     22 N22        -8.6622    0.1734   61.9216 N.am    1  ZINC000494558165   -0.7300
     23 C23        -8.0237    0.0159   63.2306 C.3     1  ZINC000494558165    0.1700
     24 H24        -7.2622   -0.7621   63.1757 H       1  ZINC000494558165    0.1200
     25 C25        -7.3748    1.3458   63.6531 C.3     1  ZINC000494558165   -0.1400
     26 C26        -7.0194    1.2082   65.1561 C.3     1  ZINC000494558165   -0.5800
     27 S27        -8.5046    0.3826   65.8431 S.o2    1  ZINC000494558165    2.4000
     28 O28        -8.1007   -0.6426   66.7405 O.2     1  ZINC000494558165   -0.9300
     29 O29        -9.4372    1.3673   66.2670 O.2     1  ZINC000494558165   -0.9300
     30 C30        -9.0837   -0.3696   64.2814 C.3     1  ZINC000494558165   -0.6200
     31 H31       -10.8580   -0.6801   57.7805 H       1  ZINC000494558165    0.0700
     32 H32       -10.9827   -2.4492   57.6292 H       1  ZINC000494558165    0.1200
     33 H33       -12.1745    0.4031   59.1527 H       1  ZINC000494558165    0.0900
     34 H34       -13.7483    0.3037   58.3271 H       1  ZINC000494558165    0.0400
     35 H35       -13.3201   -1.3061   60.8406 H       1  ZINC000494558165    0.0700
     36 H36       -13.6210    0.4426   60.9817 H       1  ZINC000494558165    0.0800
     37 H37       -15.8187   -0.2242   60.9362 H       1  ZINC000494558165    0.0500
     38 H38       -15.5500   -0.2225   59.1766 H       1  ZINC000494558165    0.0400
     39 H39       -14.8815   -2.5783   59.5391 H       1  ZINC000494558165    0.3800
     40 H40       -14.0703   -3.5809   58.0964 H       1  ZINC000494558165    0.0900
     41 H41       -14.8165   -3.2413   56.4992 H       1  ZINC000494558165    0.0800
     42 H42       -12.0646   -4.3489   57.1352 H       1  ZINC000494558165    0.0800
     43 H43       -13.1408   -4.7244   55.7558 H       1  ZINC000494558165    0.0800
     44 H44       -10.8794   -4.0067   54.1636 H       1  ZINC000494558165    0.1200
     45 H45        -9.9486   -2.0135   53.0620 H       1  ZINC000494558165    0.1300
     46 H46       -10.5894    0.2341   53.8397 H       1  ZINC000494558165    0.1200
     47 H47       -12.1606    0.4835   55.7164 H       1  ZINC000494558165    0.1200
     48 H48        -9.8538    0.1312   59.6926 H       1  ZINC000494558165    0.4100
     49 H49        -8.6105    1.0226   61.4557 H       1  ZINC000494558165    0.4000
     50 H50        -6.4707    1.5218   63.0702 H       1  ZINC000494558165    0.1100
     51 H51        -8.0778    2.1663   63.5093 H       1  ZINC000494558165    0.0900
     52 H52        -6.1345    0.5858   65.2889 H       1  ZINC000494558165    0.1400
     53 H53        -6.8764    2.1883   65.6110 H       1  ZINC000494558165    0.1400
     54 H54       -10.0574    0.0348   64.0049 H       1  ZINC000494558165    0.1500
     55 H55        -9.1374   -1.4537   64.3806 H       1  ZINC000494558165    0.1500
@<TRIPOS>BOND
     1     1     2    2
     2     2     3    1
     3     2    19   am
     4     3     4    1
     5     3    31    1
     6     3    32    1
     7     4     5    1
     8     4     9    1
     9     5     6    1
    10     5    33    1
    11     5    34    1
    12     6     7    1
    13     6    35    1
    14     6    36    1
    15     7     8    1
    16     7    37    1
    17     7    38    1
    18     8    39    1
    19     9    10    1
    20     9    18    1
    21     9    11    1
    22    11    12    1
    23    11    40    1
    24    11    41    1
    25    12    13    1
    26    12    42    1
    27    12    43    1
    28    13    18   ar
    29    13    14   ar
    30    14    15   ar
    31    14    44    1
    32    15    16   ar
    33    15    45    1
    34    16    17   ar
    35    16    46    1
    36    17    18   ar
    37    17    47    1
    38    19    20   am
    39    19    48    1
    40    20    21    2
    41    20    22   am
    42    22    23    1
    43    22    49    1
    44    23    24    1
    45    23    30    1
    46    23    25    1
    47    25    26    1
    48    25    50    1
    49    25    51    1
    50    26    27    1
    51    26    52    1
    52    26    53    1
    53    27    28    2
    54    27    29    2
    55    27    30    1
    56    30    54    1
    57    30    55    1
@<TRIPOS>SUBSTRUCTURE
     1 ZINC000494558165        1 TEMP              0 ****  ****    0 ROOT


##########                                Name:    ZINC000434204837
##########                DOCK_Rotatable_Bonds:                   7
##########                         Heavy_Atoms:                  29
##########                    Molecular_Weight:             406.511
##########                DOCK_Rotatable_Bonds:                   7
##########                       Formal_Charge:          -0.0200002
##########                     HBond_Acceptors:                   8
##########                        HBond_Donors:                   0
##########                         Heavy_Atoms:                  29
##########                          Grid_Score:          -33.229713
##########                     Grid_vdw_energy:          -33.446701
##########                      Grid_es_energy:            0.216987
##########           Internal_energy_repulsive:           14.206736

@<TRIPOS>MOLECULE
ZINC000434204837
 51 54 1 0 0
SMALL
USER_CHARGES


@<TRIPOS>ATOM
      1 C1          0.3740    3.9677   59.1978 C.3     1  ZINC000434204837   -0.1300
      2 C2          0.0139    2.7103   59.9466 C.ar    1  ZINC000434204837   -0.0700
      3 C3         -0.3306    2.7768   61.2834 C.ar    1  ZINC000434204837   -0.1200
      4 C4         -0.6610    1.6233   61.9703 C.ar    1  ZINC000434204837   -0.1100
      5 C5         -0.6470    0.4037   61.3201 C.ar    1  ZINC000434204837   -0.1300
      6 C6         -0.3032    0.3374   59.9826 C.ar    1  ZINC000434204837   -0.0900
      7 C7          0.0228    1.4911   59.2948 C.ar    1  ZINC000434204837   -0.1000
      8 C8          0.3976    1.4187   57.8369 C.3     1  ZINC000434204837    0.0100
      9 C9         -0.6017    2.1987   57.0220 C.2     1  ZINC000434204837    0.2000
     10 N10        -0.3544    2.8878   55.9342 N.2     1  ZINC000434204837   -0.4600
     11 C11        -1.5363    3.4080   55.5585 C.2     1  ZINC000434204837    0.1700
     12 C12        -1.7840    4.2842   54.3577 C.3     1  ZINC000434204837   -0.0300
     13 S13        -2.0212    3.2474   52.8930 S.3     1  ZINC000434204837    0.0900
     14 C14        -2.3494    4.4905   51.6881 C.2     1  ZINC000434204837    0.2100
     15 N15        -2.5127    5.7761   51.9151 N.2     1  ZINC000434204837   -0.3300
     16 N16        -2.7363    6.4021   50.8164 N.2     1  ZINC000434204837   -0.0200
     17 N17        -2.7333    5.5812   49.8227 N.2     1  ZINC000434204837   -0.0700
     18 N18        -2.4757    4.3037   50.3501 N.pl3   1  ZINC000434204837   -0.3100
     19 C19        -2.3784    3.0952   49.6458 C.ar    1  ZINC000434204837    0.1100
     20 C20        -3.2262    2.0400   49.9545 C.ar    1  ZINC000434204837   -0.1100
     21 C21        -3.1282    0.8508   49.2587 C.ar    1  ZINC000434204837   -0.0900
     22 C22        -2.1865    0.7106   48.2559 C.ar    1  ZINC000434204837   -0.0600
     23 C23        -2.0822   -0.5882   47.4987 C.3     1  ZINC000434204837   -0.0600
     24 C24        -2.1135   -0.3060   45.9953 C.3     1  ZINC000434204837   -0.1500
     25 C25        -0.7686   -1.2849   47.8596 C.3     1  ZINC000434204837   -0.1500
     26 C26        -1.3406    1.7597   47.9463 C.ar    1  ZINC000434204837   -0.1000
     27 C27        -1.4377    2.9531   48.6347 C.ar    1  ZINC000434204837   -0.0900
     28 N28        -2.4257    3.0159   56.4210 N.2     1  ZINC000434204837   -0.3600
     29 O29        -1.9103    2.3155   57.2667 O.3     1  ZINC000434204837    0.0900
     30 H30        -0.5258    4.4007   58.7609 H       1  ZINC000434204837    0.0800
     31 H31         0.8247    4.6835   59.8853 H       1  ZINC000434204837    0.0700
     32 H32         1.0835    3.7283   58.4058 H       1  ZINC000434204837    0.0700
     33 H33        -0.3416    3.7297   61.7915 H       1  ZINC000434204837    0.1300
     34 H34        -0.9295    1.6752   63.0151 H       1  ZINC000434204837    0.1200
     35 H35        -0.9044   -0.4974   61.8568 H       1  ZINC000434204837    0.1300
     36 H36        -0.2920   -0.6156   59.4746 H       1  ZINC000434204837    0.1300
     37 H37         1.3917    1.8429   57.6959 H       1  ZINC000434204837    0.1200
     38 H38         0.3973    0.3780   57.5129 H       1  ZINC000434204837    0.1200
     39 H39        -2.6771    4.8862   54.5251 H       1  ZINC000434204837    0.1300
     40 H40        -0.9272    4.9400   54.2036 H       1  ZINC000434204837    0.1400
     41 H41        -3.9614    2.1488   50.7381 H       1  ZINC000434204837    0.1400
     42 H42        -3.7875    0.0298   49.4983 H       1  ZINC000434204837    0.1400
     43 H43        -2.9201   -1.2324   47.7650 H       1  ZINC000434204837    0.0800
     44 H44        -1.2754    0.3382   45.7291 H       1  ZINC000434204837    0.0600
     45 H45        -2.0380   -1.2454   45.4476 H       1  ZINC000434204837    0.0600
     46 H46        -3.0493    0.1904   45.7382 H       1  ZINC000434204837    0.0600
     47 H47        -0.7463   -1.4860   48.9307 H       1  ZINC000434204837    0.0600
     48 H48        -0.6932   -2.2242   47.3119 H       1  ZINC000434204837    0.0600
     49 H49         0.0693   -0.6407   47.5933 H       1  ZINC000434204837    0.0600
     50 H50        -0.6058    1.6470   47.1628 H       1  ZINC000434204837    0.1400
     51 H51        -0.7768    3.7722   48.3924 H       1  ZINC000434204837    0.1400
@<TRIPOS>BOND
     1     1     2    1
     2     1    30    1
     3     1    31    1
     4     1    32    1
     5     2     7   ar
     6     2     3   ar
     7     3     4   ar
     8     3    33    1
     9     4     5   ar
    10     4    34    1
    11     5     6   ar
    12     5    35    1
    13     6     7   ar
    14     6    36    1
    15     7     8    1
    16     8     9    1
    17     8    37    1
    18     8    38    1
    19     9    29    1
    20     9    10    2
    21    10    11    1
    22    11    12    1
    23    11    28    2
    24    12    13    1
    25    12    39    1
    26    12    40    1
    27    13    14    1
    28    14    18    1
    29    14    15    2
    30    15    16    1
    31    16    17    2
    32    17    18    1
    33    18    19    1
    34    19    27   ar
    35    19    20   ar
    36    20    21   ar
    37    20    41    1
    38    21    22   ar
    39    21    42    1
    40    22    23    1
    41    22    26   ar
    42    23    24    1
    43    23    25    1
    44    23    43    1
    45    24    44    1
    46    24    45    1
    47    24    46    1
    48    25    47    1
    49    25    48    1
    50    25    49    1
    51    26    27   ar
    52    26    50    1
    53    27    51    1
    54    28    29    1
@<TRIPOS>SUBSTRUCTURE
     1 ZINC000434204837        1 TEMP              0 ****  ****    0 ROOT


##########                                Name:    ZINC001344051361
##########                DOCK_Rotatable_Bonds:                   8
##########                         Heavy_Atoms:                  28
##########                    Molecular_Weight:             379.456
##########                DOCK_Rotatable_Bonds:                   8
##########                       Formal_Charge:          -0.0100006
##########                     HBond_Acceptors:                   5
##########                        HBond_Donors:                   0
##########                         Heavy_Atoms:                  28
##########                          Grid_Score:          -33.216114
##########                     Grid_vdw_energy:          -32.137402
##########                      Grid_es_energy:           -1.078714
##########           Internal_energy_repulsive:           19.244211

@<TRIPOS>MOLECULE
ZINC001344051361
 53 56 1 0 0
SMALL
USER_CHARGES


@<TRIPOS>ATOM
      1 O1        -11.1094   -3.2669   53.4729 O.2     1  ZINC001344051361   -0.4800
      2 C2        -11.2204   -2.1708   53.9690 C.2     1  ZINC001344051361    0.4800
      3 O3        -11.3254   -2.0444   55.3012 O.3     1  ZINC001344051361   -0.3500
      4 C4        -11.9482   -3.1415   56.0203 C.3     1  ZINC001344051361    0.0700
      5 C5        -12.8119   -2.5835   57.1533 C.3     1  ZINC001344051361   -0.1000
      6 H6        -12.8926   -1.5014   57.0502 H       1  ZINC001344051361    0.0900
      7 C7        -14.2073   -3.2084   57.0870 C.3     1  ZINC001344051361   -0.1200
      8 C8        -15.0820   -2.6266   58.1998 C.3     1  ZINC001344051361   -0.1300
      9 C9        -14.4642   -2.9664   59.5598 C.3     1  ZINC001344051361    0.0800
     10 N10       -13.0725   -2.4958   59.5779 N.am    1  ZINC001344051361   -0.6100
     11 C11       -12.6335   -1.6880   60.5634 C.2     1  ZINC001344051361    0.5600
     12 O12       -13.3914   -1.3421   61.4485 O.2     1  ZINC001344051361   -0.5300
     13 C13       -11.2301   -1.2227   60.5680 C.ar    1  ZINC001344051361   -0.1300
     14 C14       -10.2021   -2.0998   60.9170 C.ar    1  ZINC001344051361   -0.1000
     15 C15        -8.8946   -1.6594   60.9188 C.ar    1  ZINC001344051361   -0.1300
     16 C16        -8.6017   -0.3513   60.5761 C.ar    1  ZINC001344051361   -0.0900
     17 C17        -9.6161    0.5233   60.2295 C.ar    1  ZINC001344051361   -0.1300
     18 C18       -10.9272    0.0939   60.2176 C.ar    1  ZINC001344051361   -0.0600
     19 C19       -12.1679   -2.9222   58.5014 C.3     1  ZINC001344051361    0.1200
     20 C20       -11.2345   -0.9450   53.0925 C.3     1  ZINC001344051361    0.0200
     21 O21       -11.8876   -1.0972   51.8306 O.3     1  ZINC001344051361   -0.2500
     22 C22       -13.2451   -1.1583   51.8418 C.ar    1  ZINC001344051361    0.1200
     23 C23       -13.9329   -1.1111   53.0457 C.ar    1  ZINC001344051361   -0.2000
     24 C24       -15.3129   -1.1729   53.0544 C.ar    1  ZINC001344051361   -0.0800
     25 C25       -16.0087   -1.2820   51.8645 C.ar    1  ZINC001344051361   -0.1500
     26 C26       -15.3256   -1.3295   50.6634 C.ar    1  ZINC001344051361   -0.0800
     27 C27       -13.9459   -1.2619   50.6489 C.ar    1  ZINC001344051361   -0.1400
     28 C28       -11.3398    0.4162   53.7832 C.3     1  ZINC001344051361   -0.1700
     29 C29       -10.0168   -0.0207   53.1508 C.3     1  ZINC001344051361   -0.1100
     30 H30       -12.5728   -3.7161   55.3364 H       1  ZINC001344051361    0.0800
     31 H31       -11.1757   -3.7879   56.4368 H       1  ZINC001344051361    0.0800
     32 H32       -14.6578   -2.9892   56.1189 H       1  ZINC001344051361    0.0700
     33 H33       -14.1282   -4.2880   57.2143 H       1  ZINC001344051361    0.0700
     34 H34       -15.1414   -1.5440   58.0875 H       1  ZINC001344051361    0.0700
     35 H35       -16.0825   -3.0547   58.1376 H       1  ZINC001344051361    0.0800
     36 H36       -15.0276   -2.4715   60.3509 H       1  ZINC001344051361    0.1100
     37 H37       -14.4871   -4.0454   59.7122 H       1  ZINC001344051361    0.0700
     38 H38       -10.4295   -3.1208   61.1855 H       1  ZINC001344051361    0.1400
     39 H39        -8.0981   -2.3370   61.1887 H       1  ZINC001344051361    0.1300
     40 H40        -7.5765   -0.0115   60.5794 H       1  ZINC001344051361    0.1300
     41 H41        -9.3807    1.5432   59.9633 H       1  ZINC001344051361    0.1300
     42 H42       -11.7181    0.7776   59.9466 H       1  ZINC001344051361    0.1300
     43 H43       -12.0033   -3.9977   58.5671 H       1  ZINC001344051361    0.0700
     44 H44       -11.2165   -2.3984   58.5947 H       1  ZINC001344051361    0.1000
     45 H45       -13.3898   -1.0267   53.9754 H       1  ZINC001344051361    0.1300
     46 H46       -15.8488   -1.1363   53.9914 H       1  ZINC001344051361    0.1300
     47 H47       -17.0876   -1.3305   51.8734 H       1  ZINC001344051361    0.1300
     48 H48       -15.8713   -1.4152   49.7353 H       1  ZINC001344051361    0.1300
     49 H49       -13.4127   -1.2991   49.7104 H       1  ZINC001344051361    0.1300
     50 H50       -11.9071    1.1959   53.2751 H       1  ZINC001344051361    0.1200
     51 H51       -11.3986    0.4251   54.8715 H       1  ZINC001344051361    0.1200
     52 H52        -9.2053   -0.2991   53.8231 H       1  ZINC001344051361    0.1200
     53 H53        -9.7139    0.4717   52.2267 H       1  ZINC001344051361    0.1200
@<TRIPOS>BOND
     1     1     2    2
     2     2     3    1
     3     2    20    1
     4     3     4    1
     5     4     5    1
     6     4    30    1
     7     4    31    1
     8     5     6    1
     9     5    19    1
    10     5     7    1
    11     7     8    1
    12     7    32    1
    13     7    33    1
    14     8     9    1
    15     8    34    1
    16     8    35    1
    17     9    10    1
    18     9    36    1
    19     9    37    1
    20    10    11   am
    21    10    19    1
    22    11    12    2
    23    11    13    1
    24    13    18   ar
    25    13    14   ar
    26    14    15   ar
    27    14    38    1
    28    15    16   ar
    29    15    39    1
    30    16    17   ar
    31    16    40    1
    32    17    18   ar
    33    17    41    1
    34    18    42    1
    35    19    43    1
    36    19    44    1
    37    20    29    1
    38    20    21    1
    39    20    28    1
    40    21    22    1
    41    22    27   ar
    42    22    23   ar
    43    23    24   ar
    44    23    45    1
    45    24    25   ar
    46    24    46    1
    47    25    26   ar
    48    25    47    1
    49    26    27   ar
    50    26    48    1
    51    27    49    1
    52    28    29    1
    53    28    50    1
    54    28    51    1
    55    29    52    1
    56    29    53    1
@<TRIPOS>SUBSTRUCTURE
     1 ZINC001344051361        1 TEMP              0 ****  ****    0 ROOT


##########                                Name:    ZINC000058043838
##########                DOCK_Rotatable_Bonds:                   8
##########                         Heavy_Atoms:                  29
##########                    Molecular_Weight:             412.469
##########                DOCK_Rotatable_Bonds:                   8
##########                       Formal_Charge:           0.0200001
##########                     HBond_Acceptors:                   9
##########                        HBond_Donors:                   0
##########                         Heavy_Atoms:                  29
##########                          Grid_Score:          -33.158081
##########                     Grid_vdw_energy:          -31.784542
##########                      Grid_es_energy:           -1.373539
##########           Internal_energy_repulsive:           11.790447

@<TRIPOS>MOLECULE
ZINC000058043838
 49 51 1 0 0
SMALL
USER_CHARGES


@<TRIPOS>ATOM
      1 C1         -6.8341    6.8375   52.5012 C.3     1  ZINC000058043838    0.0300
      2 O2         -6.4312    5.4698   52.5974 O.3     1  ZINC000058043838   -0.3800
      3 C3         -5.0265    5.2647   52.4331 C.3     1  ZINC000058043838    0.0300
      4 C4         -4.7114    3.7725   52.5546 C.3     1  ZINC000058043838    0.1000
      5 N5         -3.2628    3.5871   52.6697 N.am    1  ZINC000058043838   -0.5200
      6 C6         -2.6878    3.5109   53.8862 C.2     1  ZINC000058043838    0.5100
      7 O7         -1.4887    3.3559   53.9816 O.2     1  ZINC000058043838   -0.4500
      8 C8         -3.5348    3.6181   55.1281 C.3     1  ZINC000058043838   -0.0900
      9 C9         -2.6613    3.9774   56.3024 C.ar    1  ZINC000058043838   -0.1400
     10 C10        -2.0710    2.9838   57.0681 C.ar    1  ZINC000058043838   -0.0500
     11 C11        -1.2749    3.3613   58.1390 C.ar    1  ZINC000058043838   -0.1700
     12 C12        -1.0975    4.7055   58.4053 C.ar    1  ZINC000058043838    0.1300
     13 C13        -0.2340    5.1272   59.5662 C.3     1  ZINC000058043838   -0.1100
     14 N14        -1.6748    5.6239   57.6552 N.ar    1  ZINC000058043838   -0.4800
     15 C15        -2.4340    5.3018   56.6263 C.ar    1  ZINC000058043838    0.1200
     16 C16        -2.4816    3.4899   51.5247 C.2     1  ZINC000058043838    0.3100
     17 N17        -2.6768    2.6537   50.5532 N.2     1  ZINC000058043838   -0.4700
     18 C18        -1.8282    2.7042   49.5359 C.2     1  ZINC000058043838    0.1100
     19 C19        -1.9418    1.8030   48.3634 C.ar    1  ZINC000058043838    0.0400
     20 C20        -2.5971    0.5786   48.4831 C.ar    1  ZINC000058043838   -0.0800
     21 C21        -2.7002   -0.2557   47.3886 C.ar    1  ZINC000058043838   -0.0500
     22 C22        -2.1548    0.1213   46.1744 C.ar    1  ZINC000058043838   -0.0400
     23 N23        -2.2687   -0.7780   45.0040 N.pl3   1  ZINC000058043838    0.0300
     24 O24        -2.8417   -1.8473   45.1111 O.2     1  ZINC000058043838   -0.1600
     25 O25        -1.7893   -0.4483   43.9339 O.2     1  ZINC000058043838   -0.1600
     26 C26        -1.5038    1.3355   46.0497 C.ar    1  ZINC000058043838   -0.0500
     27 C27        -1.3988    2.1799   47.1363 C.ar    1  ZINC000058043838   -0.1100
     28 C28        -0.8573    3.6293   49.6404 C.2     1  ZINC000058043838   -0.2600
     29 S29        -1.0765    4.4882   51.1634 S.3     1  ZINC000058043838    0.1500
     30 H30        -6.3315    7.4195   53.2738 H       1  ZINC000058043838    0.0500
     31 H31        -6.5647    7.2275   51.5196 H       1  ZINC000058043838    0.0400
     32 H32        -7.9133    6.9088   52.6368 H       1  ZINC000058043838    0.0900
     33 H33        -4.7197    5.6220   51.4502 H       1  ZINC000058043838    0.0600
     34 H34        -4.4866    5.8140   53.2044 H       1  ZINC000058043838    0.0800
     35 H35        -5.2009    3.3687   53.4408 H       1  ZINC000058043838    0.1200
     36 H36        -5.0751    3.2511   51.6692 H       1  ZINC000058043838    0.1000
     37 H37        -4.2900    4.3912   54.9871 H       1  ZINC000058043838    0.1100
     38 H38        -4.0238    2.6626   55.3180 H       1  ZINC000058043838    0.1100
     39 H39        -2.2278    1.9408   56.8364 H       1  ZINC000058043838    0.1300
     40 H40        -0.7996    2.6140   58.7572 H       1  ZINC000058043838    0.1400
     41 H41         0.7964    5.2425   59.2295 H       1  ZINC000058043838    0.0800
     42 H42        -0.5953    6.0763   59.9619 H       1  ZINC000058043838    0.0800
     43 H43        -0.2783    4.3676   60.3467 H       1  ZINC000058043838    0.0800
     44 H44        -2.8903    6.0818   56.0348 H       1  ZINC000058043838    0.1500
     45 H45        -3.0230    0.2831   49.4305 H       1  ZINC000058043838    0.1600
     46 H46        -3.2073   -1.2047   47.4802 H       1  ZINC000058043838    0.1600
     47 H47        -1.0798    1.6247   45.0995 H       1  ZINC000058043838    0.1600
     48 H48        -0.8907    3.1278   47.0377 H       1  ZINC000058043838    0.1500
     49 H49        -0.0799    3.8159   48.9144 H       1  ZINC000058043838    0.1800
@<TRIPOS>BOND
     1     1     2    1
     2     1    30    1
     3     1    31    1
     4     1    32    1
     5     2     3    1
     6     3     4    1
     7     3    33    1
     8     3    34    1
     9     4     5    1
    10     4    35    1
    11     4    36    1
    12     5     6   am
    13     5    16    1
    14     6     7    2
    15     6     8    1
    16     8     9    1
    17     8    37    1
    18     8    38    1
    19     9    15   ar
    20     9    10   ar
    21    10    11   ar
    22    10    39    1
    23    11    12   ar
    24    11    40    1
    25    12    13    1
    26    12    14   ar
    27    13    41    1
    28    13    42    1
    29    13    43    1
    30    14    15   ar
    31    15    44    1
    32    16    29    1
    33    16    17    2
    34    17    18    1
    35    18    19    1
    36    18    28    2
    37    19    27   ar
    38    19    20   ar
    39    20    21   ar
    40    20    45    1
    41    21    22   ar
    42    21    46    1
    43    22    23    1
    44    22    26   ar
    45    23    24    2
    46    23    25    2
    47    26    27   ar
    48    26    47    1
    49    27    48    1
    50    28    29    1
    51    28    49    1
@<TRIPOS>SUBSTRUCTURE
     1 ZINC000058043838        1 TEMP              0 ****  ****    0 ROOT


##########                                Name:    ZINC000151820600
##########                DOCK_Rotatable_Bonds:                  10
##########                         Heavy_Atoms:                  25
##########                    Molecular_Weight:             388.915
##########                DOCK_Rotatable_Bonds:                  10
##########                       Formal_Charge:           0.0499998
##########                     HBond_Acceptors:                   8
##########                        HBond_Donors:                   2
##########                         Heavy_Atoms:                  25
##########                          Grid_Score:          -33.117382
##########                     Grid_vdw_energy:          -28.809702
##########                      Grid_es_energy:           -4.307681
##########           Internal_energy_repulsive:           79.934807

@<TRIPOS>MOLECULE
ZINC000151820600
 50 50 1 0 0
SMALL
USER_CHARGES


@<TRIPOS>ATOM
      1 C1         -0.2655    5.0601   53.4619 C.3     1  ZINC000151820600   -0.4900
      2 S2         -1.7432    4.0875   53.0608 S.o     1  ZINC000151820600    1.2500
      3 O3         -1.3633    2.7527   52.7555 O.2     1  ZINC000151820600   -0.8500
      4 C4         -2.3693    4.8958   51.5625 C.3     1  ZINC000151820600   -0.4500
      5 C5         -3.6365    4.1809   51.0889 C.3     1  ZINC000151820600   -0.1100
      6 C6         -3.3118    2.7176   50.7814 C.3     1  ZINC000151820600    0.1200
      7 N7         -2.8541    2.6000   49.3947 N.am    1  ZINC000151820600   -0.7200
      8 C8         -1.5368    2.6469   49.1136 C.2     1  ZINC000151820600    0.5200
      9 O9         -0.7304    2.7878   50.0086 O.2     1  ZINC000151820600   -0.5200
     10 C10        -1.0659    2.5241   47.6874 C.3     1  ZINC000151820600    0.1900
     11 H11        -1.5205    3.3110   47.0856 H       1  ZINC000151820600    0.1300
     12 N12         0.3926    2.6554   47.6417 N.am    1  ZINC000151820600   -0.6900
     13 C13         0.9609    3.8768   47.6840 C.2     1  ZINC000151820600    0.6600
     14 O14         0.2636    4.8691   47.7585 O.2     1  ZINC000151820600   -0.5600
     15 O15         2.3013    3.9973   47.6436 O.3     1  ZINC000151820600   -0.3600
     16 C16         2.8398    5.3432   47.5605 C.3     1  ZINC000151820600    0.1400
     17 C17         2.3912    6.1482   48.7818 C.3     1  ZINC000151820600   -0.1800
     18 C18         4.3681    5.2796   47.5249 C.3     1  ZINC000151820600   -0.1400
     19 C19         2.3277    6.0198   46.2875 C.3     1  ZINC000151820600   -0.1800
     20 C20        -1.4665    1.1783   47.1402 C.ar    1  ZINC000151820600   -0.1000
     21 C21        -2.0609    1.0876   45.8956 C.ar    1  ZINC000151820600   -0.0900
     22 C22        -2.4281   -0.1469   45.3927 C.ar    1  ZINC000151820600   -0.1000
     23 C23        -2.2016   -1.2907   46.1343 C.ar    1  ZINC000151820600   -0.1000
     24 C24        -1.6066   -1.2004   47.3804 C.ar    1  ZINC000151820600   -0.0300
     25 Cl25       -1.3212   -2.6370   48.3125 Cl      1  ZINC000151820600   -0.0600
     26 C26        -1.2342    0.0343   47.8806 C.ar    1  ZINC000151820600   -0.0900
     27 H27         0.4397    5.0085   52.6323 H       1  ZINC000151820600    0.0800
     28 H28        -0.5494    6.0985   53.6334 H       1  ZINC000151820600    0.1100
     29 H29         0.2013    4.6578   54.3610 H       1  ZINC000151820600    0.1100
     30 H30        -2.6007    5.9382   51.7815 H       1  ZINC000151820600    0.1200
     31 H31        -1.6116    4.8483   50.7804 H       1  ZINC000151820600    0.0900
     32 H32        -4.3942    4.2282   51.8710 H       1  ZINC000151820600    0.0800
     33 H33        -4.0127    4.6665   50.1885 H       1  ZINC000151820600    0.0900
     34 H34        -2.5272    2.3705   51.4537 H       1  ZINC000151820600    0.0800
     35 H35        -4.2057    2.1098   50.9218 H       1  ZINC000151820600    0.0700
     36 H36        -3.4991    2.4884   48.6789 H       1  ZINC000151820600    0.4000
     37 H37         0.9492    1.8633   47.5810 H       1  ZINC000151820600    0.4200
     38 H38         2.7561    5.6661   49.6888 H       1  ZINC000151820600    0.0600
     39 H39         2.7956    7.1585   48.7195 H       1  ZINC000151820600    0.0700
     40 H40         1.3025    6.1935   48.8072 H       1  ZINC000151820600    0.0900
     41 H41         4.6878    4.7061   46.6548 H       1  ZINC000151820600    0.0700
     42 H42         4.7724    6.2899   47.4626 H       1  ZINC000151820600    0.0800
     43 H43         4.7330    4.7975   48.4319 H       1  ZINC000151820600    0.0700
     44 H44         1.2390    6.0651   46.3129 H       1  ZINC000151820600    0.0900
     45 H45         2.7320    7.0301   46.2252 H       1  ZINC000151820600    0.0700
     46 H46         2.6473    5.4463   45.4174 H       1  ZINC000151820600    0.0600
     47 H47        -2.2387    1.9813   45.3160 H       1  ZINC000151820600    0.1300
     48 H48        -2.8925   -0.2172   44.4202 H       1  ZINC000151820600    0.1400
     49 H49        -2.4893   -2.2548   45.7417 H       1  ZINC000151820600    0.1400
     50 H50        -0.7697    0.1054   48.8530 H       1  ZINC000151820600    0.1400
@<TRIPOS>BOND
     1     1     2    1
     2     1    27    1
     3     1    28    1
     4     1    29    1
     5     2     3    2
     6     2     4    1
     7     4     5    1
     8     4    30    1
     9     4    31    1
    10     5     6    1
    11     5    32    1
    12     5    33    1
    13     6     7    1
    14     6    34    1
    15     6    35    1
    16     7     8   am
    17     7    36    1
    18     8     9    2
    19     8    10    1
    20    10    11    1
    21    10    12    1
    22    10    20    1
    23    12    13   am
    24    12    37    1
    25    13    14    2
    26    13    15    1
    27    15    16    1
    28    16    17    1
    29    16    18    1
    30    16    19    1
    31    17    38    1
    32    17    39    1
    33    17    40    1
    34    18    41    1
    35    18    42    1
    36    18    43    1
    37    19    44    1
    38    19    45    1
    39    19    46    1
    40    20    26   ar
    41    20    21   ar
    42    21    22   ar
    43    21    47    1
    44    22    23   ar
    45    22    48    1
    46    23    24   ar
    47    23    49    1
    48    24    25    1
    49    24    26   ar
    50    26    50    1
@<TRIPOS>SUBSTRUCTURE
     1 ZINC000151820600        1 TEMP              0 ****  ****    0 ROOT


##########                                Name:    ZINC000541000201
##########                DOCK_Rotatable_Bonds:                  10
##########                         Heavy_Atoms:                  30
##########                    Molecular_Weight:             420.413
##########                DOCK_Rotatable_Bonds:                  10
##########                       Formal_Charge:               -0.03
##########                     HBond_Acceptors:                   9
##########                        HBond_Donors:                   1
##########                         Heavy_Atoms:                  30
##########                          Grid_Score:          -33.113834
##########                     Grid_vdw_energy:          -32.894905
##########                      Grid_es_energy:           -0.218931
##########           Internal_energy_repulsive:           12.176702

@<TRIPOS>MOLECULE
ZINC000541000201
 52 54 1 0 0
SMALL
USER_CHARGES


@<TRIPOS>ATOM
      1 C1         -1.6955   -2.3878   48.1867 C.3     1  ZINC000541000201    0.0400
      2 O2         -1.3632   -1.0095   48.5000 O.3     1  ZINC000541000201   -0.3500
      3 C3         -0.0865   -0.6349   48.3224 C.2     1  ZINC000541000201    0.4500
      4 O4          0.7611   -1.4659   48.0970 O.2     1  ZINC000541000201   -0.4900
      5 C5          0.2896    0.8221   48.4041 C.3     1  ZINC000541000201    0.2100
      6 H6          1.2233    0.9259   48.9568 H       1  ZINC000541000201    0.1400
      7 N7         -0.7706    1.5621   49.0931 N.am    1  ZINC000541000201   -0.7100
      8 C8         -0.5034    2.7597   49.6507 C.2     1  ZINC000541000201    0.5800
      9 O9          0.6170    3.2266   49.5805 O.2     1  ZINC000541000201   -0.5300
     10 C10        -1.5712    3.5045   50.3465 C.ar    1  ZINC000541000201   -0.2300
     11 C11        -1.2997    4.7417   50.9488 C.ar    1  ZINC000541000201    0.0200
     12 C12        -2.3307    5.3999   51.5875 C.ar    1  ZINC000541000201   -0.2000
     13 C13        -3.5952    4.8203   51.6133 C.ar    1  ZINC000541000201    0.3500
     14 O14        -4.6114    5.4622   52.2389 O.3     1  ZINC000541000201   -0.2900
     15 C15        -5.8883    4.8206   52.2281 C.3     1  ZINC000541000201    0.0800
     16 C16        -5.8880    3.5966   53.1772 C.3     1  ZINC000541000201   -0.1400
     17 C17        -7.3906    3.4218   53.5100 C.3     1  ZINC000541000201   -0.1200
     18 C18        -7.9218    4.8651   53.6305 C.3     1  ZINC000541000201   -0.1200
     19 C19        -6.9666    5.7545   52.8154 C.3     1  ZINC000541000201   -0.1200
     20 N20        -3.8201    3.6505   51.0346 N.ar    1  ZINC000541000201   -0.5400
     21 C21        -2.8673    2.9909   50.4100 C.ar    1  ZINC000541000201    0.1800
     22 C22         0.4652    1.3744   47.0130 C.ar    1  ZINC000541000201   -0.1300
     23 C23        -0.5879    1.3374   46.1178 C.ar    1  ZINC000541000201   -0.0700
     24 C24        -0.4294    1.8430   44.8420 C.ar    1  ZINC000541000201   -0.1300
     25 C25         0.7874    2.3886   44.4595 C.ar    1  ZINC000541000201    0.1200
     26 O26         0.9456    2.8870   43.2051 O.3     1  ZINC000541000201   -0.3200
     27 C27         1.7492    2.1259   42.3013 C.3     1  ZINC000541000201    0.4100
     28 F28         3.0806    2.5454   42.3944 F       1  ZINC000541000201   -0.2000
     29 F29         1.6637    0.7689   42.6306 F       1  ZINC000541000201   -0.2000
     30 C30         1.8423    2.4248   45.3598 C.ar    1  ZINC000541000201   -0.1900
     31 C31         1.6773    1.9223   46.6359 C.ar    1  ZINC000541000201   -0.0500
     32 H32        -2.7558   -2.5575   48.3740 H       1  ZINC000541000201    0.1000
     33 H33        -1.4758   -2.5850   47.1374 H       1  ZINC000541000201    0.0600
     34 H34        -1.1045   -3.0556   48.8134 H       1  ZINC000541000201    0.0600
     35 H35        -1.6648    1.1902   49.1481 H       1  ZINC000541000201    0.4100
     36 H36        -0.3082    5.1684   50.9139 H       1  ZINC000541000201    0.1600
     37 H37        -2.1578    6.3544   52.0625 H       1  ZINC000541000201    0.1500
     38 H38        -6.1547    4.5201   51.2148 H       1  ZINC000541000201    0.1000
     39 H39        -5.4997    2.7139   52.6691 H       1  ZINC000541000201    0.0700
     40 H40        -5.3144    3.8077   54.0798 H       1  ZINC000541000201    0.0800
     41 H41        -7.9008    2.8935   52.7045 H       1  ZINC000541000201    0.0700
     42 H42        -7.5130    2.8902   54.4537 H       1  ZINC000541000201    0.0700
     43 H43        -8.9302    4.9272   53.2213 H       1  ZINC000541000201    0.0700
     44 H44        -7.9223    5.1768   54.6749 H       1  ZINC000541000201    0.0700
     45 H45        -6.5036    6.4978   53.4643 H       1  ZINC000541000201    0.0800
     46 H46        -7.5114    6.2482   52.0108 H       1  ZINC000541000201    0.0700
     47 H47        -3.0888    2.0395   49.9496 H       1  ZINC000541000201    0.1600
     48 H48        -1.5350    0.9127   46.4160 H       1  ZINC000541000201    0.1300
     49 H49        -1.2521    1.8133   44.1429 H       1  ZINC000541000201    0.1400
     50 H50         1.3916    2.2758   41.2825 H       1  ZINC000541000201    0.1900
     51 H51         2.7907    2.8487   45.0643 H       1  ZINC000541000201    0.1400
     52 H52         2.4981    1.9507   47.3373 H       1  ZINC000541000201    0.1400
@<TRIPOS>BOND
     1     1     2    1
     2     1    32    1
     3     1    33    1
     4     1    34    1
     5     2     3    1
     6     3     4    2
     7     3     5    1
     8     5     6    1
     9     5     7    1
    10     5    22    1
    11     7     8   am
    12     7    35    1
    13     8     9    2
    14     8    10    1
    15    10    21   ar
    16    10    11   ar
    17    11    12   ar
    18    11    36    1
    19    12    13   ar
    20    12    37    1
    21    13    14    1
    22    13    20   ar
    23    14    15    1
    24    15    19    1
    25    15    16    1
    26    15    38    1
    27    16    17    1
    28    16    39    1
    29    16    40    1
    30    17    18    1
    31    17    41    1
    32    17    42    1
    33    18    19    1
    34    18    43    1
    35    18    44    1
    36    19    45    1
    37    19    46    1
    38    20    21   ar
    39    21    47    1
    40    22    31   ar
    41    22    23   ar
    42    23    24   ar
    43    23    48    1
    44    24    25   ar
    45    24    49    1
    46    25    26    1
    47    25    30   ar
    48    26    27    1
    49    27    28    1
    50    27    29    1
    51    27    50    1
    52    30    31   ar
    53    30    51    1
    54    31    52    1
@<TRIPOS>SUBSTRUCTURE
     1 ZINC000541000201        1 TEMP              0 ****  ****    0 ROOT


##########                                Name:    ZINC000492313853
##########                DOCK_Rotatable_Bonds:                   8
##########                         Heavy_Atoms:                  30
##########                    Molecular_Weight:             418.422
##########                DOCK_Rotatable_Bonds:                   8
##########                       Formal_Charge:          -0.0100008
##########                     HBond_Acceptors:                  10
##########                        HBond_Donors:                   2
##########                         Heavy_Atoms:                  30
##########                          Grid_Score:          -33.081036
##########                     Grid_vdw_energy:          -33.102764
##########                      Grid_es_energy:            0.021727
##########           Internal_energy_repulsive:            9.508657

@<TRIPOS>MOLECULE
ZINC000492313853
 51 53 1 0 0
SMALL
USER_CHARGES


@<TRIPOS>ATOM
      1 C1         -9.5038    2.4591   60.2635 C.3     1  ZINC000492313853    0.0900
      2 N2         -8.5780    1.5569   59.5741 N.pl3   1  ZINC000492313853   -0.6200
      3 C3         -8.6830    0.1091   59.7714 C.3     1  ZINC000492313853    0.1000
      4 C4         -7.6001    2.0746   58.7327 C.ar    1  ZINC000492313853    0.4100
      5 C5         -7.1861    3.3935   58.8869 C.ar    1  ZINC000492313853   -0.2400
      6 C6         -6.2117    3.8957   58.0430 C.ar    1  ZINC000492313853   -0.0100
      7 C7         -5.6825    3.0589   57.0698 C.ar    1  ZINC000492313853   -0.2300
      8 C8         -4.6187    3.5630   56.1288 C.3     1  ZINC000492313853    0.2000
      9 N9         -5.2069    3.7989   54.8080 N.am    1  ZINC000492313853   -0.7300
     10 C10        -4.4180    3.8360   53.7159 C.2     1  ZINC000492313853    0.7100
     11 O11        -3.2183    3.6723   53.8266 O.2     1  ZINC000492313853   -0.5600
     12 N12        -4.9590    4.0545   52.5009 N.am    1  ZINC000492313853   -0.6600
     13 C13        -4.1422    4.0946   51.3706 C.2     1  ZINC000492313853    0.3300
     14 C14        -3.5535    3.0279   50.7690 C.2     1  ZINC000492313853   -0.2600
     15 C15        -2.8197    3.5063   49.6674 C.2     1  ZINC000492313853    0.1200
     16 C16        -2.0199    2.6804   48.7289 C.ar    1  ZINC000492313853   -0.0100
     17 C17        -1.0543    3.2771   47.9212 C.ar    1  ZINC000492313853   -0.0600
     18 C18        -0.3129    2.5041   47.0504 C.ar    1  ZINC000492313853   -0.1200
     19 C19        -0.5272    1.1397   46.9789 C.ar    1  ZINC000492313853   -0.0700
     20 C20        -1.4847    0.5419   47.7788 C.ar    1  ZINC000492313853   -0.1900
     21 C21        -1.7123   -0.9455   47.6958 C.3     1  ZINC000492313853    0.5100
     22 F22        -2.5541   -1.3473   48.7385 F       1  ZINC000492313853   -0.1800
     23 F23        -2.3075   -1.2584   46.4691 F       1  ZINC000492313853   -0.1800
     24 F24        -0.4867   -1.6115   47.8030 F       1  ZINC000492313853   -0.1800
     25 C25        -2.2280    1.3044   48.6566 C.ar    1  ZINC000492313853   -0.0400
     26 N26        -2.9657    4.8132   49.6141 N.2     1  ZINC000492313853   -0.2700
     27 N27        -3.7971    5.2066   50.6702 N.pl3   1  ZINC000492313853   -0.3900
     28 C28        -4.2142    6.5781   50.9725 C.3     1  ZINC000492313853    0.1000
     29 C29        -6.1402    1.7599   56.9732 C.ar    1  ZINC000492313853    0.1700
     30 N30        -7.0672    1.3061   57.7952 N.ar    1  ZINC000492313853   -0.5400
     31 H31        -9.0830    2.7439   61.2279 H       1  ZINC000492313853    0.0600
     32 H32        -9.6603    3.3516   59.6576 H       1  ZINC000492313853    0.0700
     33 H33       -10.4568    1.9531   60.4180 H       1  ZINC000492313853    0.0700
     34 H34        -9.5014   -0.1056   60.4587 H       1  ZINC000492313853    0.0700
     35 H35        -8.8761   -0.3751   58.8141 H       1  ZINC000492313853    0.0600
     36 H36        -7.7497   -0.2694   60.1882 H       1  ZINC000492313853    0.0600
     37 H37        -7.6196    4.0171   59.6547 H       1  ZINC000492313853    0.1300
     38 H38        -5.8707    4.9160   58.1387 H       1  ZINC000492313853    0.1400
     39 H39        -4.2050    4.4951   56.5140 H       1  ZINC000492313853    0.0800
     40 H40        -3.8254    2.8203   56.0459 H       1  ZINC000492313853    0.0800
     41 H41        -6.1642    3.9283   54.7195 H       1  ZINC000492313853    0.4000
     42 H42        -5.9163    4.1839   52.4124 H       1  ZINC000492313853    0.4100
     43 H43        -3.6339    1.9970   51.0808 H       1  ZINC000492313853    0.1800
     44 H44        -0.8865    4.3425   47.9759 H       1  ZINC000492313853    0.1400
     45 H45         0.4357    2.9656   46.4235 H       1  ZINC000492313853    0.1400
     46 H46         0.0549    0.5386   46.2961 H       1  ZINC000492313853    0.1400
     47 H47        -2.9752    0.8368   49.2806 H       1  ZINC000492313853    0.1400
     48 H48        -5.1402    6.8014   50.4428 H       1  ZINC000492313853    0.0800
     49 H49        -4.3757    6.6805   52.0456 H       1  ZINC000492313853    0.0800
     50 H50        -3.4369    7.2727   50.6540 H       1  ZINC000492313853    0.1000
     51 H51        -5.7312    1.1054   56.2176 H       1  ZINC000492313853    0.1600
@<TRIPOS>BOND
     1     1     2    1
     2     1    31    1
     3     1    32    1
     4     1    33    1
     5     2     3    1
     6     2     4    1
     7     3    34    1
     8     3    35    1
     9     3    36    1
    10     4    30   ar
    11     4     5   ar
    12     5     6   ar
    13     5    37    1
    14     6     7   ar
    15     6    38    1
    16     7     8    1
    17     7    29   ar
    18     8     9    1
    19     8    39    1
    20     8    40    1
    21     9    10   am
    22     9    41    1
    23    10    11    2
    24    10    12   am
    25    12    13    1
    26    12    42    1
    27    13    27    1
    28    13    14    2
    29    14    15    1
    30    14    43    1
    31    15    16    1
    32    15    26    2
    33    16    25   ar
    34    16    17   ar
    35    17    18   ar
    36    17    44    1
    37    18    19   ar
    38    18    45    1
    39    19    20   ar
    40    19    46    1
    41    20    21    1
    42    20    25   ar
    43    21    22    1
    44    21    23    1
    45    21    24    1
    46    25    47    1
    47    26    27    1
    48    27    28    1
    49    28    48    1
    50    28    49    1
    51    28    50    1
    52    29    30   ar
    53    29    51    1
@<TRIPOS>SUBSTRUCTURE
     1 ZINC000492313853        1 TEMP              0 ****  ****    0 ROOT


##########                                Name:    ZINC000066361645
##########                DOCK_Rotatable_Bonds:                   8
##########                         Heavy_Atoms:                  27
##########                    Molecular_Weight:             392.519
##########                DOCK_Rotatable_Bonds:                   8
##########                       Formal_Charge:           0.0100004
##########                     HBond_Acceptors:                   7
##########                        HBond_Donors:                   2
##########                         Heavy_Atoms:                  27
##########                          Grid_Score:          -33.044853
##########                     Grid_vdw_energy:          -31.554430
##########                      Grid_es_energy:           -1.490421
##########           Internal_energy_repulsive:           16.514490

@<TRIPOS>MOLECULE
ZINC000066361645
 55 57 1 0 0
SMALL
USER_CHARGES


@<TRIPOS>ATOM
      1 C1         -1.8949   -1.0264   47.2020 C.3     1  ZINC000066361645   -0.1400
      2 S2         -2.4185    0.7072   47.3064 S.3     1  ZINC000066361645   -0.1100
      3 C3         -1.2061    1.5463   46.3418 C.ar    1  ZINC000066361645   -0.1200
      4 C4         -0.7969    1.0170   45.1271 C.ar    1  ZINC000066361645   -0.1100
      5 C5          0.1571    1.6773   44.3663 C.ar    1  ZINC000066361645    0.0500
      6 C6          0.7029    2.8716   44.8208 C.ar    1  ZINC000066361645    0.0700
      7 C7          0.2962    3.4018   46.0365 C.ar    1  ZINC000066361645   -0.1100
      8 C8         -0.6605    2.7466   46.7959 C.ar    1  ZINC000066361645    0.1800
      9 N9         -1.0710    3.2844   48.0250 N.am    1  ZINC000066361645   -0.6600
     10 C10        -0.3019    3.1262   49.1204 C.2     1  ZINC000066361645    0.5100
     11 O11         0.7454    2.5188   49.0436 O.2     1  ZINC000066361645   -0.5000
     12 C12        -0.7428    3.7038   50.4405 C.3     1  ZINC000066361645   -0.1500
     13 C13        -2.0117    2.9902   50.9112 C.3     1  ZINC000066361645    0.1600
     14 H14        -2.1322    2.0597   50.3566 H       1  ZINC000066361645    0.1000
     15 C15        -3.2241    3.8907   50.6660 C.3     1  ZINC000066361645   -0.1600
     16 N16        -1.9039    2.6955   52.3422 N.am    1  ZINC000066361645   -0.7200
     17 C17        -1.6176    3.6828   53.2139 C.2     1  ZINC000066361645    0.5300
     18 O18        -1.4505    4.8154   52.8137 O.2     1  ZINC000066361645   -0.5400
     19 C19        -1.5051    3.3793   54.6857 C.3     1  ZINC000066361645   -0.1100
     20 C20        -0.5102    4.3460   55.3312 C.3     1  ZINC000066361645   -0.1100
     21 C21        -0.3960    4.0378   56.8254 C.3     1  ZINC000066361645   -0.1200
     22 C22        -1.7665    4.2002   57.4859 C.3     1  ZINC000066361645   -0.1200
     23 C23        -2.7614    3.2334   56.8404 C.3     1  ZINC000066361645   -0.1200
     24 C24        -2.8757    3.5416   55.3461 C.3     1  ZINC000066361645   -0.1000
     25 O25         1.6351    3.5368   44.0826 O.3     1  ZINC000066361645   -0.3000
     26 C26         2.2915    2.7916   43.0516 C.3     1  ZINC000066361645    0.0200
     27 C27         1.2253    2.0142   42.2678 C.3     1  ZINC000066361645    0.0200
     28 O28         0.5491    1.1400   43.1778 O.3     1  ZINC000066361645   -0.3100
     29 H29        -1.8959   -1.3440   46.1593 H       1  ZINC000066361645    0.0900
     30 H30        -0.8900   -1.1278   47.6118 H       1  ZINC000066361645    0.0900
     31 H31        -2.5843   -1.6491   47.7721 H       1  ZINC000066361645    0.1100
     32 H32        -1.2215    0.0893   44.7728 H       1  ZINC000066361645    0.1400
     33 H33         0.7229    4.3288   46.3900 H       1  ZINC000066361645    0.1600
     34 H34        -1.9084    3.7701   48.0864 H       1  ZINC000066361645    0.4100
     35 H35         0.0467    3.5662   51.1793 H       1  ZINC000066361645    0.1000
     36 H36        -0.9474    4.7678   50.3214 H       1  ZINC000066361645    0.1200
     37 H37        -3.1036    4.8213   51.2206 H       1  ZINC000066361645    0.0600
     38 H38        -3.3043    4.1100   49.6013 H       1  ZINC000066361645    0.0700
     39 H39        -4.1281    3.3823   51.0014 H       1  ZINC000066361645    0.0700
     40 H40        -2.0387    1.7898   52.6624 H       1  ZINC000066361645    0.4000
     41 H41        -1.1561    2.3554   54.8200 H       1  ZINC000066361645    0.1000
     42 H42         0.4662    4.2304   54.8607 H       1  ZINC000066361645    0.0600
     43 H43        -0.8593    5.3699   55.1970 H       1  ZINC000066361645    0.0700
     44 H44        -0.0470    3.0140   56.9596 H       1  ZINC000066361645    0.0600
     45 H45         0.3127    4.7265   57.2854 H       1  ZINC000066361645    0.0700
     46 H46        -1.6851    3.9806   58.5505 H       1  ZINC000066361645    0.0600
     47 H47        -2.1156    5.2239   57.3517 H       1  ZINC000066361645    0.0600
     48 H48        -2.4123    2.2095   56.9747 H       1  ZINC000066361645    0.0600
     49 H49        -3.7378    3.3490   57.3110 H       1  ZINC000066361645    0.0700
     50 H50        -3.2247    4.5654   55.2120 H       1  ZINC000066361645    0.0700
     51 H51        -3.5844    2.8529   54.8863 H       1  ZINC000066361645    0.0700
     52 H52         2.8156    3.4735   42.3819 H       1  ZINC000066361645    0.1300
     53 H53         3.0015    2.0947   43.4969 H       1  ZINC000066361645    0.0800
     54 H54         0.5115    2.7107   41.8281 H       1  ZINC000066361645    0.0800
     55 H55         1.7013    1.4290   41.4809 H       1  ZINC000066361645    0.1200
@<TRIPOS>BOND
     1     1     2    1
     2     1    29    1
     3     1    30    1
     4     1    31    1
     5     2     3    1
     6     3     8   ar
     7     3     4   ar
     8     4     5   ar
     9     4    32    1
    10     5    28    1
    11     5     6   ar
    12     6     7   ar
    13     6    25    1
    14     7     8   ar
    15     7    33    1
    16     8     9    1
    17     9    10   am
    18     9    34    1
    19    10    11    2
    20    10    12    1
    21    12    13    1
    22    12    35    1
    23    12    36    1
    24    13    14    1
    25    13    15    1
    26    13    16    1
    27    15    37    1
    28    15    38    1
    29    15    39    1
    30    16    17   am
    31    16    40    1
    32    17    18    2
    33    17    19    1
    34    19    24    1
    35    19    20    1
    36    19    41    1
    37    20    21    1
    38    20    42    1
    39    20    43    1
    40    21    22    1
    41    21    44    1
    42    21    45    1
    43    22    23    1
    44    22    46    1
    45    22    47    1
    46    23    24    1
    47    23    48    1
    48    23    49    1
    49    24    50    1
    50    24    51    1
    51    25    26    1
    52    26    27    1
    53    26    52    1
    54    26    53    1
    55    27    28    1
    56    27    54    1
    57    27    55    1
@<TRIPOS>SUBSTRUCTURE
     1 ZINC000066361645        1 TEMP              0 ****  ****    0 ROOT


##########                                Name:    ZINC000533037883
##########                DOCK_Rotatable_Bonds:                   7
##########                         Heavy_Atoms:                  27
##########                    Molecular_Weight:             368.479
##########                DOCK_Rotatable_Bonds:                   7
##########                       Formal_Charge:          0.00999947
##########                     HBond_Acceptors:                   6
##########                        HBond_Donors:                   1
##########                         Heavy_Atoms:                  27
##########                          Grid_Score:          -33.026253
##########                     Grid_vdw_energy:          -31.555754
##########                      Grid_es_energy:           -1.470501
##########           Internal_energy_repulsive:           14.453334

@<TRIPOS>MOLECULE
ZINC000533037883
 55 58 1 0 0
SMALL
USER_CHARGES


@<TRIPOS>ATOM
      1 O1        -12.9799   -3.3844   55.0983 O.2     1  ZINC000533037883   -0.5900
      2 C2        -12.2309   -2.6233   55.6799 C.2     1  ZINC000533037883    0.7100
      3 N3        -11.0776   -2.2377   55.0988 N.am    1  ZINC000533037883   -0.7500
      4 C4        -10.7235   -2.7404   53.7690 C.3     1  ZINC000533037883    0.1400
      5 C5        -10.1785   -1.5917   52.9181 C.3     1  ZINC000533037883   -0.0500
      6 C6        -11.3240   -0.7501   52.4174 C.2     1  ZINC000533037883   -0.2300
      7 C7        -12.1232   -1.0389   51.3644 C.2     1  ZINC000533037883    0.0600
      8 N8        -13.0241   -0.0376   51.2447 N.pl3   1  ZINC000533037883   -0.3200
      9 C9        -14.0357    0.0511   50.2783 C.ar    1  ZINC000533037883    0.1600
     10 C10       -14.2386   -0.9932   49.3860 C.ar    1  ZINC000533037883   -0.1400
     11 C11       -15.2361   -0.9029   48.4349 C.ar    1  ZINC000533037883   -0.0900
     12 C12       -16.0318    0.2262   48.3705 C.ar    1  ZINC000533037883   -0.1300
     13 C13       -15.8321    1.2677   49.2578 C.ar    1  ZINC000533037883   -0.0900
     14 C14       -14.8403    1.1806   50.2151 C.ar    1  ZINC000533037883   -0.1200
     15 N15       -12.7679    0.8951   52.2581 N.2     1  ZINC000533037883   -0.2900
     16 C16       -11.7528    0.4649   52.9632 C.2     1  ZINC000533037883    0.0700
     17 N17       -12.5567   -2.1609   56.9032 N.am    1  ZINC000533037883   -0.6300
     18 C18       -13.8104   -2.5721   57.5495 C.3     1  ZINC000533037883    0.1100
     19 C19       -13.4885   -3.1310   58.9391 C.3     1  ZINC000533037883   -0.1400
     20 C20       -12.6853   -2.0942   59.7279 C.3     1  ZINC000533037883   -0.1100
     21 C21       -11.3671   -1.8096   59.0046 C.3     1  ZINC000533037883   -0.0900
     22 H22       -10.8011   -2.7354   58.9019 H       1  ZINC000533037883    0.0800
     23 C23       -10.5500   -0.7983   59.8112 C.3     1  ZINC000533037883   -0.1200
     24 H24       -11.1514    0.0776   60.0547 H       1  ZINC000533037883    0.0900
     25 C25        -9.9779   -1.4514   61.0988 C.3     1  ZINC000533037883   -0.1500
     26 C26        -8.7067   -0.5944   61.3233 C.3     1  ZINC000533037883    0.0500
     27 O27        -8.2047   -0.3158   60.0067 O.3     1  ZINC000533037883   -0.3900
     28 C28        -9.2711   -0.3917   59.0480 C.3     1  ZINC000533037883    0.0500
     29 C29       -11.6620   -1.2406   57.6183 C.3     1  ZINC000533037883    0.1300
     30 H30       -10.4819   -1.6275   55.5611 H       1  ZINC000533037883    0.4000
     31 H31        -9.9626   -3.5149   53.8642 H       1  ZINC000533037883    0.0700
     32 H32       -11.6095   -3.1583   53.2908 H       1  ZINC000533037883    0.0700
     33 H33        -9.5124   -0.9759   53.5226 H       1  ZINC000533037883    0.0800
     34 H34        -9.6279   -1.9975   52.0696 H       1  ZINC000533037883    0.0800
     35 H35       -12.0536   -1.9120   50.7325 H       1  ZINC000533037883    0.1800
     36 H36       -13.6170   -1.8749   49.4353 H       1  ZINC000533037883    0.1300
     37 H37       -15.3944   -1.7149   47.7405 H       1  ZINC000533037883    0.1300
     38 H38       -16.8107    0.2946   47.6254 H       1  ZINC000533037883    0.1300
     39 H39       -16.4551    2.1483   49.2050 H       1  ZINC000533037883    0.1300
     40 H40       -14.6850    1.9944   50.9080 H       1  ZINC000533037883    0.1400
     41 H41       -11.3172    0.9646   53.8157 H       1  ZINC000533037883    0.1900
     42 H42       -14.4714   -1.7109   57.6462 H       1  ZINC000533037883    0.0700
     43 H43       -14.2954   -3.3421   56.9494 H       1  ZINC000533037883    0.0800
     44 H44       -14.4166   -3.3505   59.4668 H       1  ZINC000533037883    0.0800
     45 H45       -12.9025   -4.0443   58.8371 H       1  ZINC000533037883    0.0700
     46 H46       -13.2618   -1.1726   59.8082 H       1  ZINC000533037883    0.0700
     47 H47       -12.4761   -2.4796   60.7258 H       1  ZINC000533037883    0.0700
     48 H48       -10.6723   -1.3499   61.9327 H       1  ZINC000533037883    0.0800
     49 H49        -9.7216   -2.4971   60.9284 H       1  ZINC000533037883    0.0800
     50 H50        -8.9615    0.3336   61.8352 H       1  ZINC000533037883    0.0600
     51 H51        -7.9694   -1.1546   61.8985 H       1  ZINC000533037883    0.0900
     52 H52        -9.0382   -1.1442   58.2947 H       1  ZINC000533037883    0.0700
     53 H53        -9.4102    0.5789   58.5721 H       1  ZINC000533037883    0.0700
     54 H54       -10.7305   -1.1294   57.0632 H       1  ZINC000533037883    0.1000
     55 H55       -12.1488   -0.2704   57.7175 H       1  ZINC000533037883    0.0700
@<TRIPOS>BOND
     1     1     2    2
     2     2     3   am
     3     2    17   am
     4     3     4    1
     5     3    30    1
     6     4     5    1
     7     4    31    1
     8     4    32    1
     9     5     6    1
    10     5    33    1
    11     5    34    1
    12     6    16    1
    13     6     7    2
    14     7     8    1
    15     7    35    1
    16     8     9    1
    17     8    15    1
    18     9    14   ar
    19     9    10   ar
    20    10    11   ar
    21    10    36    1
    22    11    12   ar
    23    11    37    1
    24    12    13   ar
    25    12    38    1
    26    13    14   ar
    27    13    39    1
    28    14    40    1
    29    15    16    2
    30    16    41    1
    31    17    29    1
    32    17    18    1
    33    18    19    1
    34    18    42    1
    35    18    43    1
    36    19    20    1
    37    19    44    1
    38    19    45    1
    39    20    21    1
    40    20    46    1
    41    20    47    1
    42    21    22    1
    43    21    23    1
    44    21    29    1
    45    23    24    1
    46    23    28    1
    47    23    25    1
    48    25    26    1
    49    25    48    1
    50    25    49    1
    51    26    27    1
    52    26    50    1
    53    26    51    1
    54    27    28    1
    55    28    52    1
    56    28    53    1
    57    29    54    1
    58    29    55    1
@<TRIPOS>SUBSTRUCTURE
     1 ZINC000533037883        1 TEMP              0 ****  ****    0 ROOT


##########                                Name:    ZINC000745364361
##########                DOCK_Rotatable_Bonds:                   8
##########                         Heavy_Atoms:                  29
##########                    Molecular_Weight:             398.434
##########                DOCK_Rotatable_Bonds:                   8
##########                       Formal_Charge:          0.00999923
##########                     HBond_Acceptors:                   7
##########                        HBond_Donors:                   1
##########                         Heavy_Atoms:                  29
##########                          Grid_Score:          -33.026215
##########                     Grid_vdw_energy:          -31.417732
##########                      Grid_es_energy:           -1.608482
##########           Internal_energy_repulsive:           16.664953

@<TRIPOS>MOLECULE
ZINC000745364361
 52 54 1 0 0
SMALL
USER_CHARGES


@<TRIPOS>ATOM
      1 C1        -13.9559   -3.0068   58.2718 C.3     1  ZINC000745364361   -0.1700
      2 C2        -12.8136   -2.2076   57.6414 C.3     1  ZINC000745364361    0.0700
      3 H3        -13.2236   -1.4707   56.9508 H       1  ZINC000745364361    0.1100
      4 O4        -11.9324   -3.1089   56.9205 O.3     1  ZINC000745364361   -0.3200
      5 C5        -12.0871   -3.1767   55.5889 C.2     1  ZINC000745364361    0.4700
      6 O6        -12.5160   -4.1857   55.0812 O.2     1  ZINC000745364361   -0.4900
      7 C7        -11.7260   -1.9942   54.7273 C.3     1  ZINC000745364361   -0.0400
      8 H8        -11.4263   -1.1602   55.3618 H       1  ZINC000745364361    0.1200
      9 C9        -10.5680   -2.3725   53.8015 C.3     1  ZINC000745364361   -0.1400
     10 C10       -12.9198   -1.5923   53.9000 C.ar    1  ZINC000745364361   -0.0500
     11 C11       -12.7381   -0.9234   52.7041 C.ar    1  ZINC000745364361   -0.1000
     12 C12       -13.8324   -0.5540   51.9441 C.ar    1  ZINC000745364361   -0.0900
     13 C13       -15.1093   -0.8534   52.3792 C.ar    1  ZINC000745364361   -0.1500
     14 C14       -15.2925   -1.5241   53.5769 C.ar    1  ZINC000745364361    0.1000
     15 F15       -16.5405   -1.8172   54.0034 F       1  ZINC000745364361   -0.1400
     16 C16       -14.1959   -1.8979   54.3345 C.ar    1  ZINC000745364361   -0.1400
     17 C17       -12.0360   -1.5038   58.7237 C.2     1  ZINC000745364361    0.5200
     18 O18       -12.4501   -0.4628   59.1887 O.2     1  ZINC000745364361   -0.5000
     19 N19       -10.8807   -2.0310   59.1747 N.am    1  ZINC000745364361   -0.6700
     20 C20       -10.1580   -1.3768   60.1807 C.ar    1  ZINC000745364361    0.1200
     21 C21       -10.3365   -1.7369   61.5100 C.ar    1  ZINC000745364361   -0.1100
     22 C22        -9.6243   -1.0923   62.5013 C.ar    1  ZINC000745364361   -0.1400
     23 C23        -8.7290   -0.0839   62.1693 C.ar    1  ZINC000745364361    0.1500
     24 N24        -8.0067    0.5706   63.1753 N.am    1  ZINC000745364361   -0.5600
     25 C25        -7.0154   -0.0803   64.0400 C.3     1  ZINC000745364361    0.0900
     26 C26        -6.1916    1.0696   64.6607 C.3     1  ZINC000745364361   -0.1300
     27 C27        -7.1957    2.2441   64.6021 C.3     1  ZINC000745364361   -0.1500
     28 C28        -8.1282    1.8766   63.4690 C.2     1  ZINC000745364361    0.5200
     29 O29        -8.8813    2.6469   62.9115 O.2     1  ZINC000745364361   -0.5100
     30 C30        -8.5495    0.2752   60.8400 C.ar    1  ZINC000745364361   -0.1400
     31 C31        -9.2589   -0.3721   59.8483 C.ar    1  ZINC000745364361   -0.0900
     32 H32       -14.5183   -3.5158   57.4890 H       1  ZINC000745364361    0.0800
     33 H33       -13.5459   -3.7437   58.9623 H       1  ZINC000745364361    0.0800
     34 H34       -14.6173   -2.3302   58.8128 H       1  ZINC000745364361    0.0800
     35 H35       -10.8678   -3.2065   53.1669 H       1  ZINC000745364361    0.0700
     36 H36       -10.3069   -1.5173   53.1783 H       1  ZINC000745364361    0.0800
     37 H37        -9.7046   -2.6632   54.3999 H       1  ZINC000745364361    0.0800
     38 H38       -11.7405   -0.6885   52.3635 H       1  ZINC000745364361    0.1300
     39 H39       -13.6892   -0.0310   51.0101 H       1  ZINC000745364361    0.1400
     40 H40       -15.9639   -0.5643   51.7857 H       1  ZINC000745364361    0.1400
     41 H41       -14.3376   -2.4213   55.2685 H       1  ZINC000745364361    0.1400
     42 H42       -10.5495   -2.8633   58.8028 H       1  ZINC000745364361    0.4100
     43 H43       -11.0327   -2.5212   61.7682 H       1  ZINC000745364361    0.1300
     44 H44        -9.7636   -1.3718   63.5352 H       1  ZINC000745364361    0.1600
     45 H45        -7.5146   -0.6518   64.8225 H       1  ZINC000745364361    0.0800
     46 H46        -6.3698   -0.7311   63.4502 H       1  ZINC000745364361    0.0900
     47 H47        -5.9179    0.8415   65.6908 H       1  ZINC000745364361    0.1000
     48 H48        -5.3064    1.2829   64.0615 H       1  ZINC000745364361    0.0900
     49 H49        -7.7433    2.3250   65.5411 H       1  ZINC000745364361    0.1100
     50 H50        -6.6785    3.1774   64.3794 H       1  ZINC000745364361    0.1100
     51 H51        -7.8531    1.0592   60.5817 H       1  ZINC000745364361    0.1300
     52 H52        -9.1193   -0.0927   58.8144 H       1  ZINC000745364361    0.1400
@<TRIPOS>BOND
     1     1     2    1
     2     1    32    1
     3     1    33    1
     4     1    34    1
     5     2     3    1
     6     2     4    1
     7     2    17    1
     8     4     5    1
     9     5     6    2
    10     5     7    1
    11     7     8    1
    12     7     9    1
    13     7    10    1
    14     9    35    1
    15     9    36    1
    16     9    37    1
    17    10    16   ar
    18    10    11   ar
    19    11    12   ar
    20    11    38    1
    21    12    13   ar
    22    12    39    1
    23    13    14   ar
    24    13    40    1
    25    14    15    1
    26    14    16   ar
    27    16    41    1
    28    17    18    2
    29    17    19   am
    30    19    20    1
    31    19    42    1
    32    20    31   ar
    33    20    21   ar
    34    21    22   ar
    35    21    43    1
    36    22    23   ar
    37    22    44    1
    38    23    24    1
    39    23    30   ar
    40    24    28   am
    41    24    25    1
    42    25    26    1
    43    25    45    1
    44    25    46    1
    45    26    27    1
    46    26    47    1
    47    26    48    1
    48    27    28    1
    49    27    49    1
    50    27    50    1
    51    28    29    2
    52    30    31   ar
    53    30    51    1
    54    31    52    1
@<TRIPOS>SUBSTRUCTURE
     1 ZINC000745364361        1 TEMP              0 ****  ****    0 ROOT


##########                                Name:    ZINC000751548479
##########                DOCK_Rotatable_Bonds:                   9
##########                         Heavy_Atoms:                  27
##########                    Molecular_Weight:             389.407
##########                DOCK_Rotatable_Bonds:                   9
##########                       Formal_Charge:           0.0199995
##########                     HBond_Acceptors:                   9
##########                        HBond_Donors:                   2
##########                         Heavy_Atoms:                  27
##########                          Grid_Score:          -33.023174
##########                     Grid_vdw_energy:          -30.434107
##########                      Grid_es_energy:           -2.589067
##########           Internal_energy_repulsive:           22.048355

@<TRIPOS>MOLECULE
ZINC000751548479
 43 44 1 0 0
SMALL
USER_CHARGES


@<TRIPOS>ATOM
      1 C1          1.7229    2.9242   42.9503 C.3     1  ZINC000751548479   -0.1600
      2 C2          1.0075    1.5735   43.0209 C.3     1  ZINC000751548479    0.0800
      3 O3          1.4907    0.8294   44.1703 O.3     1  ZINC000751548479   -0.3600
      4 C4          0.8094    0.9742   45.3227 C.2     1  ZINC000751548479    0.6500
      5 O5          1.1961    0.4174   46.3311 O.2     1  ZINC000751548479   -0.5400
      6 N6         -0.3014    1.7365   45.3575 N.am    1  ZINC000751548479   -0.6500
      7 C7         -1.0081    1.8867   46.5525 C.ar    1  ZINC000751548479    0.2000
      8 C8         -0.7526    2.9706   47.3800 C.ar    1  ZINC000751548479   -0.1000
      9 C9         -1.4503    3.1205   48.5617 C.ar    1  ZINC000751548479   -0.1000
     10 C10        -2.4134    2.1880   48.9321 C.ar    1  ZINC000751548479    0.1300
     11 N11        -3.1150    2.3485   50.1322 N.am    1  ZINC000751548479   -1.0500
     12 S12        -2.8288    3.6698   51.0884 S.o2    1  ZINC000751548479    2.6800
     13 O13        -1.4980    3.5369   51.5686 O.2     1  ZINC000751548479   -0.9500
     14 O14        -3.2818    4.8004   50.3566 O.2     1  ZINC000751548479   -0.9400
     15 C15        -3.8812    3.5333   52.4951 C.2     1  ZINC000751548479   -0.7500
     16 C16        -3.4018    3.7744   53.7074 C.2     1  ZINC000751548479    0.0700
     17 C17        -4.2849    3.6617   54.8871 C.ar    1  ZINC000751548479   -0.1100
     18 C18        -5.6502    3.4264   54.7198 C.ar    1  ZINC000751548479   -0.0600
     19 C19        -6.4699    3.3216   55.8242 C.ar    1  ZINC000751548479   -0.1600
     20 C20        -5.9400    3.4500   57.0981 C.ar    1  ZINC000751548479    0.1200
     21 F21        -6.7472    3.3469   58.1765 F       1  ZINC000751548479   -0.1300
     22 C22        -4.5849    3.6832   57.2699 C.ar    1  ZINC000751548479   -0.1600
     23 C23        -3.7554    3.7844   56.1725 C.ar    1  ZINC000751548479   -0.0500
     24 C24        -2.6801    1.1014   48.1161 C.ar    1  ZINC000751548479   -0.0600
     25 C25        -1.9821    0.9452   46.9167 C.ar    1  ZINC000751548479   -0.0300
     26 C26        -2.2526   -0.1755   46.0674 C.1     1  ZINC000751548479    0.2500
     27 N27        -2.4673   -1.0647   45.3937 N.1     1  ZINC000751548479   -0.4000
     28 H28         2.7963    2.7620   42.8530 H       1  ZINC000751548479    0.0700
     29 H29         1.3601    3.4827   42.0875 H       1  ZINC000751548479    0.0900
     30 H30         1.5218    3.4899   43.8600 H       1  ZINC000751548479    0.0700
     31 H31        -0.0660    1.7357   43.1181 H       1  ZINC000751548479    0.0800
     32 H32         1.2085    1.0078   42.1112 H       1  ZINC000751548479    0.0800
     33 H33        -0.6101    2.1809   44.5525 H       1  ZINC000751548479    0.4200
     34 H34        -0.0059    3.6985   47.0991 H       1  ZINC000751548479    0.1600
     35 H35        -1.2470    3.9661   49.2021 H       1  ZINC000751548479    0.1700
     36 H36        -3.7690    1.6856   50.4039 H       1  ZINC000751548479    0.4300
     37 H37        -4.9166    3.2532   52.3697 H       1  ZINC000751548479    0.1700
     38 H38        -2.3659    4.0532   53.8330 H       1  ZINC000751548479    0.1500
     39 H39        -6.0643    3.3270   53.7273 H       1  ZINC000751548479    0.1400
     40 H40        -7.5267    3.1396   55.6958 H       1  ZINC000751548479    0.1400
     41 H41        -4.1768    3.7821   58.2649 H       1  ZINC000751548479    0.1400
     42 H42        -2.6994    3.9659   56.3074 H       1  ZINC000751548479    0.1400
     43 H43        -3.4282    0.3781   48.4051 H       1  ZINC000751548479    0.1500
@<TRIPOS>BOND
     1     1     2    1
     2     1    28    1
     3     1    29    1
     4     1    30    1
     5     2     3    1
     6     2    31    1
     7     2    32    1
     8     3     4    1
     9     4     5    2
    10     4     6   am
    11     6     7    1
    12     6    33    1
    13     7    25   ar
    14     7     8   ar
    15     8     9   ar
    16     8    34    1
    17     9    10   ar
    18     9    35    1
    19    10    11    1
    20    10    24   ar
    21    11    12   am
    22    11    36    1
    23    12    13    2
    24    12    14    2
    25    12    15    1
    26    15    16    2
    27    15    37    1
    28    16    17    1
    29    16    38    1
    30    17    23   ar
    31    17    18   ar
    32    18    19   ar
    33    18    39    1
    34    19    20   ar
    35    19    40    1
    36    20    21    1
    37    20    22   ar
    38    22    23   ar
    39    22    41    1
    40    23    42    1
    41    24    25   ar
    42    24    43    1
    43    25    26    1
    44    26    27    3
@<TRIPOS>SUBSTRUCTURE
     1 ZINC000751548479        1 TEMP              0 ****  ****    0 ROOT


##########                                Name:    ZINC000426805817
##########                DOCK_Rotatable_Bonds:                   6
##########                         Heavy_Atoms:                  26
##########                    Molecular_Weight:             412.286
##########                DOCK_Rotatable_Bonds:                   6
##########                       Formal_Charge:          -0.0100001
##########                     HBond_Acceptors:                   5
##########                        HBond_Donors:                   4
##########                         Heavy_Atoms:                  26
##########                          Grid_Score:          -32.967999
##########                     Grid_vdw_energy:          -32.280071
##########                      Grid_es_energy:           -0.687927
##########           Internal_energy_repulsive:            3.867594

@<TRIPOS>MOLECULE
ZINC000426805817
 44 47 1 0 0
SMALL
USER_CHARGES


@<TRIPOS>ATOM
      1 O1         -1.5983    6.0083   50.3443 O.co2   1  ZINC000426805817   -0.6300
      2 C2         -2.6427    5.5657   49.8972 C.2     1  ZINC000426805817    0.5000
      3 O3         -3.4575    6.3193   49.3926 O.co2   1  ZINC000426805817   -0.6800
      4 C4         -2.9237    4.0867   49.9627 C.3     1  ZINC000426805817   -0.0500
      5 H5         -3.7775    3.8505   49.3274 H       1  ZINC000426805817    0.1300
      6 C6         -1.6969    3.3123   49.4768 C.3     1  ZINC000426805817   -0.0500
      7 C7         -2.1428    2.0798   48.7331 C.2     1  ZINC000426805817   -0.1900
      8 C8         -2.9882    1.1386   49.1818 C.2     1  ZINC000426805817    0.0500
      9 N9         -3.1561    0.1702   48.2298 N.pl3   1  ZINC000426805817   -0.5900
     10 C10        -2.4034    0.4724   47.1165 C.ar    1  ZINC000426805817    0.1100
     11 C11        -2.2123   -0.1581   45.8918 C.ar    1  ZINC000426805817   -0.1200
     12 C12        -1.3748    0.4030   44.9530 C.ar    1  ZINC000426805817   -0.0700
     13 C13        -0.7155    1.5968   45.2155 C.ar    1  ZINC000426805817   -0.1100
     14 Br14        0.4287    2.3459   43.9094 Br      1  ZINC000426805817   -0.0400
     15 C15        -0.8906    2.2383   46.4215 C.ar    1  ZINC000426805817   -0.0400
     16 C16        -1.7408    1.6850   47.3808 C.ar    1  ZINC000426805817   -0.1000
     17 N17        -3.2253    3.7065   51.3493 N.4     1  ZINC000426805817   -0.4800
     18 H18        -3.1479    2.7053   51.4479 H       1  ZINC000426805817    0.4000
     19 H19        -2.5714    4.1573   51.9715 H       1  ZINC000426805817    0.4200
     20 C20        -4.5918    4.1275   51.6863 C.3     1  ZINC000426805817    0.0400
     21 C21        -4.9486    3.6221   53.0605 C.ar    1  ZINC000426805817   -0.1600
     22 C22        -6.2166    3.1064   53.3067 C.ar    1  ZINC000426805817    0.1100
     23 N23        -7.3357    2.9277   52.5246 N.pl3   1  ZINC000426805817   -0.5900
     24 C24        -8.3385    2.3679   53.2685 C.2     1  ZINC000426805817    0.0600
     25 C25        -7.9177    2.1683   54.5274 C.2     1  ZINC000426805817   -0.2000
     26 C26        -6.5321    2.6385   54.5956 C.ar    1  ZINC000426805817   -0.1100
     27 C27        -5.5755    2.6954   55.6106 C.ar    1  ZINC000426805817   -0.0400
     28 C28        -4.3357    3.2060   55.3466 C.ar    1  ZINC000426805817   -0.1500
     29 C29        -4.0179    3.6640   54.0756 C.ar    1  ZINC000426805817   -0.0700
     30 H30        -1.1079    3.9445   48.8124 H       1  ZINC000426805817    0.1200
     31 H31        -1.0893    3.0199   50.3333 H       1  ZINC000426805817    0.0900
     32 H32        -3.4650    1.1447   50.1507 H       1  ZINC000426805817    0.1700
     33 H33        -3.7211   -0.6125   48.3249 H       1  ZINC000426805817    0.4200
     34 H34        -2.7197   -1.0870   45.6771 H       1  ZINC000426805817    0.1300
     35 H35        -1.2293   -0.0905   44.0035 H       1  ZINC000426805817    0.1400
     36 H36        -0.3764    3.1666   46.6225 H       1  ZINC000426805817    0.1400
     37 H37        -4.6503    5.2158   51.6730 H       1  ZINC000426805817    0.1500
     38 H38        -5.2890    3.7172   50.9559 H       1  ZINC000426805817    0.1300
     39 H39        -7.4032    3.1639   51.5862 H       1  ZINC000426805817    0.4300
     40 H40        -9.3228    2.1232   52.8976 H       1  ZINC000426805817    0.1800
     41 H41        -8.4921    1.7420   55.3367 H       1  ZINC000426805817    0.1500
     42 H42        -5.8145    2.3374   56.6012 H       1  ZINC000426805817    0.1300
     43 H43        -3.5960    3.2498   56.1324 H       1  ZINC000426805817    0.1300
     44 H44        -3.0338    4.0649   53.8824 H       1  ZINC000426805817    0.1300
@<TRIPOS>BOND
     1     1     2   ar
     2     2     3   ar
     3     2     4    1
     4     4     5    1
     5     4     6    1
     6     4    17    1
     7     6     7    1
     8     6    30    1
     9     6    31    1
    10     7    16    1
    11     7     8    2
    12     8     9    1
    13     8    32    1
    14     9    10    1
    15     9    33    1
    16    10    16   ar
    17    10    11   ar
    18    11    12   ar
    19    11    34    1
    20    12    13   ar
    21    12    35    1
    22    13    14    1
    23    13    15   ar
    24    15    16   ar
    25    15    36    1
    26    17    18    1
    27    17    19    1
    28    17    20    1
    29    20    21    1
    30    20    37    1
    31    20    38    1
    32    21    29   ar
    33    21    22   ar
    34    22    26   ar
    35    22    23    1
    36    23    24    1
    37    23    39    1
    38    24    25    2
    39    24    40    1
    40    25    26    1
    41    25    41    1
    42    26    27   ar
    43    27    28   ar
    44    27    42    1
    45    28    29   ar
    46    28    43    1
    47    29    44    1
@<TRIPOS>SUBSTRUCTURE
     1 ZINC000426805817        1 TEMP              0 ****  ****    0 ROOT


##########                                Name:    ZINC000740843182
##########                DOCK_Rotatable_Bonds:                  10
##########                         Heavy_Atoms:                  24
##########                    Molecular_Weight:              419.34
##########                DOCK_Rotatable_Bonds:                  10
##########                       Formal_Charge:          0.00999957
##########                     HBond_Acceptors:                   7
##########                        HBond_Donors:                   3
##########                         Heavy_Atoms:                  24
##########                          Grid_Score:          -32.920826
##########                     Grid_vdw_energy:          -31.856886
##########                      Grid_es_energy:           -1.063940
##########           Internal_energy_repulsive:           13.641555

@<TRIPOS>MOLECULE
ZINC000740843182
 47 48 1 0 0
SMALL
USER_CHARGES


@<TRIPOS>ATOM
      1 C1        -10.6355    0.3894   55.1680 C.3     1  ZINC000740843182   -0.1500
      2 C2        -11.3460   -0.8454   54.6098 C.3     1  ZINC000740843182   -0.1000
      3 H3        -10.6997   -1.7164   54.7183 H       1  ZINC000740843182    0.0900
      4 C4        -12.6474   -1.0767   55.3803 C.3     1  ZINC000740843182    0.1200
      5 N5        -12.3919   -0.9564   56.8178 N.am    1  ZINC000740843182   -0.7200
      6 C6        -12.2187   -2.0635   57.5665 C.2     1  ZINC000740843182    0.5500
      7 O7        -12.2759   -3.1621   57.0493 O.2     1  ZINC000740843182   -0.5000
      8 C8        -11.9592   -1.9420   59.0164 C.ar    1  ZINC000740843182   -0.1300
      9 C9        -10.7244   -1.4765   59.4711 C.ar    1  ZINC000740843182    0.0200
     10 C10       -10.4889   -1.3649   60.8257 C.ar    1  ZINC000740843182   -0.6800
     11 S11        -8.9306   -0.7775   61.4012 S.o2    1  ZINC000740843182    2.7000
     12 O12        -8.8568   -1.1189   62.7785 O.2     1  ZINC000740843182   -0.9400
     13 O13        -7.9663   -1.1945   60.4444 O.2     1  ZINC000740843182   -0.9500
     14 N14        -8.9740    0.8765   61.3312 N.am    1  ZINC000740843182   -1.0900
     15 C15        -9.1942    1.5499   60.0490 C.3     1  ZINC000740843182    0.0800
     16 C16        -9.6263    3.0171   60.0865 C.3     1  ZINC000740843182   -0.1800
     17 C17        -8.2071    2.6485   59.6493 C.3     1  ZINC000740843182   -0.1900
     18 C18       -11.4733   -1.7128   61.7338 C.ar    1  ZINC000740843182    0.0100
     19 C19       -12.6996   -2.1749   61.2911 C.ar    1  ZINC000740843182   -0.1200
     20 C20       -12.9508   -2.2870   59.9381 C.ar    1  ZINC000740843182    0.0100
     21 Br21      -14.6277   -2.9189   59.3343 Br      1  ZINC000740843182    0.0100
     22 C22       -11.6621   -0.6260   53.1290 C.3     1  ZINC000740843182   -0.1400
     23 C23       -10.7845   -1.5464   52.2783 C.3     1  ZINC000740843182    0.1000
     24 H24       -10.4657   -2.3996   52.8769 H       1  ZINC000740843182    0.1000
     25 C25        -9.5551   -0.7749   51.7944 C.3     1  ZINC000740843182   -0.1900
     26 O26       -11.5313   -2.0081   51.1508 O.3     1  ZINC000740843182   -0.5600
     27 H27        -9.7083    0.5543   54.6192 H       1  ZINC000740843182    0.0600
     28 H28       -11.2818    1.2604   55.0596 H       1  ZINC000740843182    0.0600
     29 H29       -10.4103    0.2331   56.2230 H       1  ZINC000740843182    0.0500
     30 H30       -13.3852   -0.3332   55.0789 H       1  ZINC000740843182    0.0700
     31 H31       -13.0268   -2.0748   55.1611 H       1  ZINC000740843182    0.0700
     32 H32       -12.3474   -0.0798   57.2307 H       1  ZINC000740843182    0.4000
     33 H33        -9.9549   -1.2045   58.7638 H       1  ZINC000740843182    0.1500
     34 H34        -8.8535    1.3994   62.1393 H       1  ZINC000740843182    0.4200
     35 H35        -9.6010    0.9252   59.2537 H       1  ZINC000740843182    0.1400
     36 H36       -10.3178    3.3580   59.3160 H       1  ZINC000740843182    0.1100
     37 H37        -9.7467    3.4814   61.0653 H       1  ZINC000740843182    0.1000
     38 H38        -7.3940    2.8703   60.3405 H       1  ZINC000740843182    0.1000
     39 H39        -7.9650    2.7469   58.5911 H       1  ZINC000740843182    0.1100
     40 H40       -11.2831   -1.6233   62.7931 H       1  ZINC000740843182    0.1600
     41 H41       -13.4636   -2.4447   62.0051 H       1  ZINC000740843182    0.1500
     42 H42       -12.7122   -0.8524   52.9443 H       1  ZINC000740843182    0.0700
     43 H43       -11.4624    0.4125   52.8648 H       1  ZINC000740843182    0.0800
     44 H44        -8.9855   -0.4227   52.6545 H       1  ZINC000740843182    0.0700
     45 H45        -8.9300   -1.4306   51.1884 H       1  ZINC000740843182    0.0600
     46 H46        -9.8740    0.0784   51.1958 H       1  ZINC000740843182    0.0600
     47 H47       -11.8357   -1.3017   50.5647 H       1  ZINC000740843182    0.3700
@<TRIPOS>BOND
     1     1     2    1
     2     1    27    1
     3     1    28    1
     4     1    29    1
     5     2     3    1
     6     2     4    1
     7     2    22    1
     8     4     5    1
     9     4    30    1
    10     4    31    1
    11     5     6   am
    12     5    32    1
    13     6     7    2
    14     6     8    1
    15     8    20   ar
    16     8     9   ar
    17     9    10   ar
    18     9    33    1
    19    10    11    1
    20    10    18   ar
    21    11    12    2
    22    11    13    2
    23    11    14   am
    24    14    15    1
    25    14    34    1
    26    15    17    1
    27    15    16    1
    28    15    35    1
    29    16    17    1
    30    16    36    1
    31    16    37    1
    32    17    38    1
    33    17    39    1
    34    18    19   ar
    35    18    40    1
    36    19    20   ar
    37    19    41    1
    38    20    21    1
    39    22    23    1
    40    22    42    1
    41    22    43    1
    42    23    24    1
    43    23    25    1
    44    23    26    1
    45    25    44    1
    46    25    45    1
    47    25    46    1
    48    26    47    1
@<TRIPOS>SUBSTRUCTURE
     1 ZINC000740843182        1 TEMP              0 ****  ****    0 ROOT


##########                                Name:    ZINC000460972051
##########                DOCK_Rotatable_Bonds:                  10
##########                         Heavy_Atoms:                  29
##########                    Molecular_Weight:             417.572
##########                DOCK_Rotatable_Bonds:                  10
##########                       Formal_Charge:         3.31551e-07
##########                     HBond_Acceptors:                   7
##########                        HBond_Donors:                   2
##########                         Heavy_Atoms:                  29
##########                          Grid_Score:          -32.911350
##########                     Grid_vdw_energy:          -29.391474
##########                      Grid_es_energy:           -3.519876
##########           Internal_energy_repulsive:           27.198063

@<TRIPOS>MOLECULE
ZINC000460972051
 60 61 1 0 0
SMALL
USER_CHARGES


@<TRIPOS>ATOM
      1 C1          3.1578    5.7512   46.2103 C.3     1  ZINC000460972051   -0.1800
      2 C2          3.1098    4.3888   45.5156 C.3     1  ZINC000460972051    0.1000
      3 N3          1.7858    3.7907   45.7047 N.am    1  ZINC000460972051   -0.6200
      4 C4          1.4577    3.2411   46.8907 C.2     1  ZINC000460972051    0.7100
      5 O5          2.2611    3.2403   47.8034 O.2     1  ZINC000460972051   -0.5800
      6 N6          0.2391    2.6924   47.0651 N.am    1  ZINC000460972051   -0.7400
      7 C7         -0.1182    2.0965   48.3549 C.3     1  ZINC000460972051    0.2000
      8 H8          0.7361    2.1518   49.0297 H       1  ZINC000460972051    0.1100
      9 C9         -1.2971    2.8607   48.9607 C.3     1  ZINC000460972051    0.1100
     10 N10        -0.8556    4.1971   49.3673 N.am    1  ZINC000460972051   -1.1200
     11 S11        -0.6058    4.5349   50.9691 S.o2    1  ZINC000460972051    2.7000
     12 O12         0.2889    3.5429   51.4536 O.2     1  ZINC000460972051   -0.9500
     13 O13        -0.3381    5.9282   51.0484 O.2     1  ZINC000460972051   -0.9600
     14 C14        -2.1364    4.2741   51.8021 C.ar    1  ZINC000460972051   -0.6900
     15 C15        -3.3204    4.2779   51.0893 C.ar    1  ZINC000460972051   -0.0100
     16 C16        -4.5214    4.0733   51.7430 C.ar    1  ZINC000460972051   -0.1500
     17 C17        -4.5379    3.8645   53.1092 C.ar    1  ZINC000460972051   -0.0200
     18 C18        -5.8470    3.6420   53.8217 C.3     1  ZINC000460972051   -0.1300
     19 C19        -3.3532    3.8594   53.8220 C.ar    1  ZINC000460972051   -0.1500
     20 C20        -2.1523    4.0602   53.1680 C.ar    1  ZINC000460972051    0.0300
     21 C21        -0.8610    4.0546   53.9449 C.3     1  ZINC000460972051   -0.1700
     22 C22        -0.5054    0.6543   48.1519 C.ar    1  ZINC000460972051   -0.1000
     23 C23         0.3663   -0.3536   48.5195 C.ar    1  ZINC000460972051   -0.1000
     24 C24         0.0112   -1.6766   48.3334 C.ar    1  ZINC000460972051   -0.1200
     25 C25        -1.2158   -1.9916   47.7801 C.ar    1  ZINC000460972051   -0.1200
     26 C26        -2.0879   -0.9837   47.4133 C.ar    1  ZINC000460972051   -0.1200
     27 C27        -1.7345    0.3392   47.6034 C.ar    1  ZINC000460972051   -0.1000
     28 C28         0.8185    3.7901   44.6044 C.3     1  ZINC000460972051    0.1500
     29 C29         0.7648    5.1821   43.9717 C.3     1  ZINC000460972051   -0.1600
     30 C30         1.2456    2.7668   43.5502 C.3     1  ZINC000460972051   -0.1600
     31 H31         4.1428    6.1961   46.0696 H       1  ZINC000460972051    0.0700
     32 H32         2.3990    6.4051   45.7804 H       1  ZINC000460972051    0.0600
     33 H33         2.9658    5.6229   47.2755 H       1  ZINC000460972051    0.0700
     34 H34         3.3018    4.5171   44.4503 H       1  ZINC000460972051    0.0700
     35 H35         3.8686    3.7348   45.9455 H       1  ZINC000460972051    0.0900
     36 H36        -0.4014    2.6920   46.3366 H       1  ZINC000460972051    0.4000
     37 H37        -2.0914    2.9503   48.2195 H       1  ZINC000460972051    0.0900
     38 H38        -1.6711    2.3212   49.8308 H       1  ZINC000460972051    0.0900
     39 H39        -0.7095    4.8841   48.6982 H       1  ZINC000460972051    0.4200
     40 H40        -3.3076    4.4411   50.0218 H       1  ZINC000460972051    0.1400
     41 H41        -5.4468    4.0770   51.1862 H       1  ZINC000460972051    0.1300
     42 H42        -6.0741    2.5761   53.8399 H       1  ZINC000460972051    0.0800
     43 H43        -5.7727    4.0152   54.8431 H       1  ZINC000460972051    0.0700
     44 H44        -6.6409    4.1738   53.2976 H       1  ZINC000460972051    0.0700
     45 H45        -3.3660    3.6959   54.8894 H       1  ZINC000460972051    0.1300
     46 H46        -0.4080    3.0648   53.8894 H       1  ZINC000460972051    0.0900
     47 H47        -0.1785    4.7910   53.5207 H       1  ZINC000460972051    0.1000
     48 H48        -1.0628    4.3039   54.9867 H       1  ZINC000460972051    0.0900
     49 H49         1.3249   -0.1075   48.9518 H       1  ZINC000460972051    0.1200
     50 H50         0.6925   -2.4640   48.6199 H       1  ZINC000460972051    0.1200
     51 H51        -1.4930   -3.0252   47.6340 H       1  ZINC000460972051    0.1200
     52 H52        -3.0464   -1.2297   46.9807 H       1  ZINC000460972051    0.1200
     53 H53        -2.4158    1.1266   47.3168 H       1  ZINC000460972051    0.1200
     54 H54        -0.1674    3.5270   44.9876 H       1  ZINC000460972051    0.1000
     55 H55         0.4605    5.9112   44.7227 H       1  ZINC000460972051    0.0600
     56 H56         1.7507    5.4453   43.5885 H       1  ZINC000460972051    0.0600
     57 H57         0.0452    5.1817   43.1531 H       1  ZINC000460972051    0.0700
     58 H58         1.2839    1.7752   44.0010 H       1  ZINC000460972051    0.0600
     59 H59         0.5260    2.7664   42.7317 H       1  ZINC000460972051    0.0700
     60 H60         2.2316    3.0301   43.1670 H       1  ZINC000460972051    0.0600
@<TRIPOS>BOND
     1     1     2    1
     2     1    31    1
     3     1    32    1
     4     1    33    1
     5     2     3    1
     6     2    34    1
     7     2    35    1
     8     3     4   am
     9     3    28    1
    10     4     5    2
    11     4     6   am
    12     6     7    1
    13     6    36    1
    14     7     8    1
    15     7     9    1
    16     7    22    1
    17     9    10    1
    18     9    37    1
    19     9    38    1
    20    10    11   am
    21    10    39    1
    22    11    12    2
    23    11    13    2
    24    11    14    1
    25    14    20   ar
    26    14    15   ar
    27    15    16   ar
    28    15    40    1
    29    16    17   ar
    30    16    41    1
    31    17    18    1
    32    17    19   ar
    33    18    42    1
    34    18    43    1
    35    18    44    1
    36    19    20   ar
    37    19    45    1
    38    20    21    1
    39    21    46    1
    40    21    47    1
    41    21    48    1
    42    22    27   ar
    43    22    23   ar
    44    23    24   ar
    45    23    49    1
    46    24    25   ar
    47    24    50    1
    48    25    26   ar
    49    25    51    1
    50    26    27   ar
    51    26    52    1
    52    27    53    1
    53    28    29    1
    54    28    30    1
    55    28    54    1
    56    29    55    1
    57    29    56    1
    58    29    57    1
    59    30    58    1
    60    30    59    1
    61    30    60    1
@<TRIPOS>SUBSTRUCTURE
     1 ZINC000460972051        1 TEMP              0 ****  ****    0 ROOT


##########                                Name:    ZINC001105194920
##########                DOCK_Rotatable_Bonds:                   8
##########                         Heavy_Atoms:                  25
##########                    Molecular_Weight:             346.392
##########                DOCK_Rotatable_Bonds:                   8
##########                       Formal_Charge:          -0.0100007
##########                     HBond_Acceptors:                  10
##########                        HBond_Donors:                   3
##########                         Heavy_Atoms:                  25
##########                          Grid_Score:          -32.891731
##########                     Grid_vdw_energy:          -30.022949
##########                      Grid_es_energy:           -2.868783
##########           Internal_energy_repulsive:            7.889414

@<TRIPOS>MOLECULE
ZINC001105194920
 47 49 1 0 0
SMALL
USER_CHARGES


@<TRIPOS>ATOM
      1 C1          0.5141    2.3130   54.9790 C.3     1  ZINC001105194920    0.0300
      2 O2          0.2724    3.1831   53.8715 O.3     1  ZINC001105194920   -0.3900
      3 C3         -0.6692    4.2229   54.1439 C.3     1  ZINC001105194920    0.0700
      4 C4         -2.0515    3.8042   53.6391 C.3     1  ZINC001105194920    0.0900
      5 H5         -1.9768    2.8427   53.1310 H       1  ZINC001105194920    0.0900
      6 C6         -3.0116    3.6814   54.8241 C.3     1  ZINC001105194920   -0.1800
      7 N7         -2.5576    4.8156   52.7016 N.3     1  ZINC001105194920   -0.6800
      8 C8         -3.5165    4.2257   51.7579 C.3     1  ZINC001105194920    0.1400
      9 C9         -2.7688    3.5768   50.6218 C.2     1  ZINC001105194920   -0.0200
     10 C10        -3.0047    2.3545   50.0905 C.2     1  ZINC001105194920   -0.0200
     11 N11        -2.0965    2.1920   49.1007 N.pl3   1  ZINC001105194920   -0.2800
     12 C12        -1.9673    1.0142   48.2392 C.3     1  ZINC001105194920    0.1000
     13 C13        -1.6478    1.3517   46.7716 C.3     1  ZINC001105194920    0.1100
     14 N14        -0.2282    1.2504   47.1621 N.am    1  ZINC001105194920   -0.6300
     15 C15         0.9222    1.7640   46.6832 C.2     1  ZINC001105194920    0.6200
     16 O16         1.9776    1.5012   47.2264 O.2     1  ZINC001105194920   -0.5400
     17 C17         0.9005    2.6462   45.4985 C.ar    1  ZINC001105194920   -0.0600
     18 N18         1.0929    3.9549   45.6362 N.ar    1  ZINC001105194920   -0.3700
     19 C19         1.0729    4.7389   44.5775 C.ar    1  ZINC001105194920   -0.0200
     20 C20         0.8517    4.2068   43.3153 C.ar    1  ZINC001105194920    0.1500
     21 N21         0.6587    2.9094   43.1630 N.ar    1  ZINC001105194920   -0.5100
     22 C22         0.6823    2.1062   44.2203 C.ar    1  ZINC001105194920    0.4200
     23 N23         0.4812    0.7470   44.0652 N.pl3   1  ZINC001105194920   -0.8100
     24 C24        -0.5742    0.3607   48.2876 C.3     1  ZINC001105194920    0.1100
     25 N25        -1.3660    3.2503   49.0459 N.2     1  ZINC001105194920   -0.0800
     26 N26        -1.7451    4.0978   49.9363 N.2     1  ZINC001105194920   -0.2600
     27 H27        -0.4188    1.8328   55.2742 H       1  ZINC001105194920    0.0400
     28 H28         1.2395    1.5519   54.6916 H       1  ZINC001105194920    0.0800
     29 H29         0.9061    2.8907   55.8161 H       1  ZINC001105194920    0.0400
     30 H30        -0.7134    4.4007   55.2184 H       1  ZINC001105194920    0.0600
     31 H31        -0.3586    5.1363   53.6369 H       1  ZINC001105194920    0.0500
     32 H32        -3.0862    4.6429   55.3323 H       1  ZINC001105194920    0.0700
     33 H33        -3.9964    3.3832   54.4645 H       1  ZINC001105194920    0.0500
     34 H34        -2.6361    2.9310   55.5197 H       1  ZINC001105194920    0.0600
     35 H35        -2.9685    5.5934   53.1959 H       1  ZINC001105194920    0.3500
     36 H36        -4.1180    3.4761   52.2722 H       1  ZINC001105194920    0.0900
     37 H37        -4.1673    5.0069   51.3653 H       1  ZINC001105194920    0.0500
     38 H38        -3.7646    1.6503   50.3956 H       1  ZINC001105194920    0.1800
     39 H39        -2.7881    0.3071   48.3600 H       1  ZINC001105194920    0.1500
     40 H40        -1.9650    0.5845   46.0653 H       1  ZINC001105194920    0.1200
     41 H41        -1.9514    2.3558   46.4756 H       1  ZINC001105194920    0.1000
     42 H42         1.2291    5.8012   44.6929 H       1  ZINC001105194920    0.1800
     43 H43         0.8370    4.8571   42.4531 H       1  ZINC001105194920    0.1800
     44 H44         0.3994    0.3672   43.1765 H       1  ZINC001105194920    0.4000
     45 H45         0.4218    0.1734   44.8452 H       1  ZINC001105194920    0.4300
     46 H46        -0.0207    0.5737   49.2022 H       1  ZINC001105194920    0.1100
     47 H47        -0.5760   -0.6976   48.0267 H       1  ZINC001105194920    0.1200
@<TRIPOS>BOND
     1     1     2    1
     2     1    27    1
     3     1    28    1
     4     1    29    1
     5     2     3    1
     6     3     4    1
     7     3    30    1
     8     3    31    1
     9     4     5    1
    10     4     6    1
    11     4     7    1
    12     6    32    1
    13     6    33    1
    14     6    34    1
    15     7     8    1
    16     7    35    1
    17     8     9    1
    18     8    36    1
    19     8    37    1
    20     9    26    1
    21     9    10    2
    22    10    11    1
    23    10    38    1
    24    11    12    1
    25    11    25    1
    26    12    24    1
    27    12    13    1
    28    12    39    1
    29    13    14    1
    30    13    40    1
    31    13    41    1
    32    14    15   am
    33    14    24    1
    34    15    16    2
    35    15    17    1
    36    17    22   ar
    37    17    18   ar
    38    18    19   ar
    39    19    20   ar
    40    19    42    1
    41    20    21   ar
    42    20    43    1
    43    21    22   ar
    44    22    23    1
    45    23    44    1
    46    23    45    1
    47    24    46    1
    48    24    47    1
    49    25    26    2
@<TRIPOS>SUBSTRUCTURE
     1 ZINC001105194920        1 TEMP              0 ****  ****    0 ROOT


##########                                Name:    ZINC000050607728
##########                DOCK_Rotatable_Bonds:                  10
##########                         Heavy_Atoms:                  31
##########                    Molecular_Weight:             416.476
##########                DOCK_Rotatable_Bonds:                  10
##########                       Formal_Charge:          -0.0199995
##########                     HBond_Acceptors:                   6
##########                        HBond_Donors:                   1
##########                         Heavy_Atoms:                  31
##########                          Grid_Score:          -32.878792
##########                     Grid_vdw_energy:          -31.715870
##########                      Grid_es_energy:           -1.162922
##########           Internal_energy_repulsive:          193.817017

@<TRIPOS>MOLECULE
ZINC000050607728
 55 57 1 0 0
SMALL
USER_CHARGES


@<TRIPOS>ATOM
      1 C1         -2.7121    7.4335   46.2889 C.3     1  ZINC000050607728    0.0800
      2 N2         -2.2445    6.9759   47.5997 N.am    1  ZINC000050607728   -0.6200
      3 C3         -3.0763    7.1836   48.7875 C.3     1  ZINC000050607728    0.0700
      4 C4         -1.0491    6.3638   47.7127 C.2     1  ZINC000050607728    0.5600
      5 O5         -0.6611    5.9842   48.8002 O.2     1  ZINC000050607728   -0.5300
      6 C6         -0.2096    6.1542   46.5139 C.ar    1  ZINC000050607728   -0.1400
      7 C7          0.3321    7.2482   45.8376 C.ar    1  ZINC000050607728   -0.0800
      8 C8          1.1151    7.0457   44.7198 C.ar    1  ZINC000050607728   -0.1300
      9 C9          1.3631    5.7616   44.2687 C.ar    1  ZINC000050607728   -0.0700
     10 C10         0.8286    4.6725   44.9343 C.ar    1  ZINC000050607728   -0.1100
     11 C11         1.1036    3.2773   44.4355 C.3     1  ZINC000050607728    0.1100
     12 O12         0.5831    2.3118   45.3869 O.3     1  ZINC000050607728   -0.3400
     13 C13         1.3338    1.2247   45.6244 C.2     1  ZINC000050607728    0.4700
     14 O14         1.8888    0.6623   44.7103 O.2     1  ZINC000050607728   -0.5000
     15 C15         1.4844    0.7057   47.0312 C.3     1  ZINC000050607728    0.2000
     16 H16         2.3642    0.0650   47.0899 H       1  ZINC000050607728    0.1400
     17 N17         1.6388    1.8332   47.9538 N.am    1  ZINC000050607728   -0.7100
     18 C18         0.5825    2.2685   48.6687 C.2     1  ZINC000050607728    0.5700
     19 O19        -0.4979    1.7247   48.5493 O.2     1  ZINC000050607728   -0.5200
     20 C20         0.7380    3.4075   49.5984 C.ar    1  ZINC000050607728   -0.1400
     21 C21        -0.3526    3.8573   50.3444 C.ar    1  ZINC000050607728   -0.0800
     22 C22        -0.2005    4.9203   51.2105 C.ar    1  ZINC000050607728   -0.1300
     23 C23         1.0294    5.5405   51.3403 C.ar    1  ZINC000050607728   -0.0900
     24 C24         2.1144    5.0998   50.6034 C.ar    1  ZINC000050607728   -0.1300
     25 C25         1.9774    4.0339   49.7383 C.ar    1  ZINC000050607728   -0.0600
     26 C26         0.2595   -0.0874   47.4078 C.ar    1  ZINC000050607728   -0.1000
     27 C27        -0.9988    0.4015   47.1107 C.ar    1  ZINC000050607728   -0.1000
     28 C28        -2.1223   -0.3260   47.4561 C.ar    1  ZINC000050607728   -0.1200
     29 C29        -1.9875   -1.5425   48.0984 C.ar    1  ZINC000050607728   -0.1100
     30 C30        -0.7290   -2.0318   48.3949 C.ar    1  ZINC000050607728   -0.1200
     31 C31         0.3946   -1.3064   48.0456 C.ar    1  ZINC000050607728   -0.0800
     32 C32         0.0493    4.8609   46.0567 C.ar    1  ZINC000050607728   -0.0400
     33 H33        -2.3769    8.4570   46.1205 H       1  ZINC000050607728    0.0600
     34 H34        -2.3061    6.7858   45.5118 H       1  ZINC000050607728    0.0800
     35 H35        -3.8011    7.3983   46.2589 H       1  ZINC000050607728    0.0700
     36 H36        -3.7919    6.3663   48.8775 H       1  ZINC000050607728    0.0600
     37 H37        -2.4430    7.2113   49.6743 H       1  ZINC000050607728    0.0800
     38 H38        -3.6130    8.1279   48.6948 H       1  ZINC000050607728    0.0700
     39 H39         0.1387    8.2512   46.1884 H       1  ZINC000050607728    0.1400
     40 H40         1.5350    7.8914   44.1955 H       1  ZINC000050607728    0.1400
     41 H41         1.9763    5.6085   43.3929 H       1  ZINC000050607728    0.1300
     42 H42         0.6181    3.1342   43.4702 H       1  ZINC000050607728    0.0900
     43 H43         2.1789    3.1360   44.3259 H       1  ZINC000050607728    0.0900
     44 H44         2.5013    2.2664   48.0500 H       1  ZINC000050607728    0.4100
     45 H45        -1.3134    3.3746   50.2435 H       1  ZINC000050607728    0.1300
     46 H46        -1.0436    5.2694   51.7883 H       1  ZINC000050607728    0.1300
     47 H47         1.1431    6.3724   52.0195 H       1  ZINC000050607728    0.1300
     48 H48         3.0717    5.5884   50.7090 H       1  ZINC000050607728    0.1300
     49 H49         2.8252    3.6907   49.1640 H       1  ZINC000050607728    0.1400
     50 H50        -1.1042    1.3520   46.6087 H       1  ZINC000050607728    0.1200
     51 H51        -3.1055    0.0563   47.2244 H       1  ZINC000050607728    0.1200
     52 H52        -2.8653   -2.1106   48.3690 H       1  ZINC000050607728    0.1200
     53 H53        -0.6237   -2.9823   48.8971 H       1  ZINC000050607728    0.1300
     54 H54         1.3777   -1.6887   48.2772 H       1  ZINC000050607728    0.1300
     55 H55        -0.3671    4.0100   46.5756 H       1  ZINC000050607728    0.1300
@<TRIPOS>BOND
     1     1     2    1
     2     1    33    1
     3     1    34    1
     4     1    35    1
     5     2     3    1
     6     2     4   am
     7     3    36    1
     8     3    37    1
     9     3    38    1
    10     4     5    2
    11     4     6    1
    12     6    32   ar
    13     6     7   ar
    14     7     8   ar
    15     7    39    1
    16     8     9   ar
    17     8    40    1
    18     9    10   ar
    19     9    41    1
    20    10    11    1
    21    10    32   ar
    22    11    12    1
    23    11    42    1
    24    11    43    1
    25    12    13    1
    26    13    14    2
    27    13    15    1
    28    15    16    1
    29    15    17    1
    30    15    26    1
    31    17    18   am
    32    17    44    1
    33    18    19    2
    34    18    20    1
    35    20    25   ar
    36    20    21   ar
    37    21    22   ar
    38    21    45    1
    39    22    23   ar
    40    22    46    1
    41    23    24   ar
    42    23    47    1
    43    24    25   ar
    44    24    48    1
    45    25    49    1
    46    26    31   ar
    47    26    27   ar
    48    27    28   ar
    49    27    50    1
    50    28    29   ar
    51    28    51    1
    52    29    30   ar
    53    29    52    1
    54    30    31   ar
    55    30    53    1
    56    31    54    1
    57    32    55    1
@<TRIPOS>SUBSTRUCTURE
     1 ZINC000050607728        1 TEMP              0 ****  ****    0 ROOT


##########                                Name:    ZINC000185180600
##########                DOCK_Rotatable_Bonds:                   7
##########                         Heavy_Atoms:                  26
##########                    Molecular_Weight:             395.953
##########                DOCK_Rotatable_Bonds:                   7
##########                       Formal_Charge:          0.00999977
##########                     HBond_Acceptors:                   7
##########                        HBond_Donors:                   0
##########                         Heavy_Atoms:                  26
##########                          Grid_Score:          -32.858932
##########                     Grid_vdw_energy:          -28.512346
##########                      Grid_es_energy:           -4.346587
##########           Internal_energy_repulsive:           28.051874

@<TRIPOS>MOLECULE
ZINC000185180600
 52 53 1 0 0
SMALL
USER_CHARGES


@<TRIPOS>ATOM
      1 C1         -7.4698    4.5629   56.2635 C.3     1  ZINC000185180600   -0.1500
      2 C2         -6.3896    3.6396   55.6964 C.3     1  ZINC000185180600   -0.0900
      3 C3         -6.4846    3.6214   54.1694 C.3     1  ZINC000185180600   -0.1500
      4 C4         -5.0099    4.1512   56.1155 C.3     1  ZINC000185180600   -0.1300
      5 C5         -3.9323    3.2018   55.5881 C.3     1  ZINC000185180600    0.1300
      6 H6         -4.0295    3.1066   54.5067 H       1  ZINC000185180600    0.1100
      7 C7         -4.1010    1.8271   56.2384 C.3     1  ZINC000185180600   -0.1600
      8 N8         -2.6080    3.7369   55.9141 N.am    1  ZINC000185180600   -0.6000
      9 C9         -2.0005    3.4463   57.2152 C.3     1  ZINC000185180600    0.0700
     10 C10        -1.9486    4.4966   55.0172 C.2     1  ZINC000185180600    0.5400
     11 O11        -0.8517    4.9384   55.2866 O.2     1  ZINC000185180600   -0.5300
     12 C12        -2.5742    4.7972   53.6795 C.3     1  ZINC000185180600   -0.5000
     13 S13        -2.1405    3.4879   52.5012 S.o     1  ZINC000185180600    1.3200
     14 O14        -0.7343    3.4816   52.2967 O.2     1  ZINC000185180600   -0.8000
     15 C15        -2.9706    4.0184   50.9780 C.3     1  ZINC000185180600   -0.3900
     16 C16        -2.7017    3.0171   49.8845 C.2     1  ZINC000185180600    0.1000
     17 N17        -1.9678    3.2219   48.8203 N.2     1  ZINC000185180600   -0.2800
     18 N18        -1.9688    2.0485   48.0550 N.pl3   1  ZINC000185180600   -0.3200
     19 C19        -1.3001    1.8566   46.8377 C.ar    1  ZINC000185180600    0.1700
     20 C20        -1.8056    0.9671   45.8993 C.ar    1  ZINC000185180600   -0.1300
     21 C21        -1.1451    0.7797   44.7010 C.ar    1  ZINC000185180600   -0.0800
     22 C22         0.0202    1.4774   44.4355 C.ar    1  ZINC000185180600   -0.0500
     23 Cl23        0.8483    1.2397   42.9283 Cl      1  ZINC000185180600   -0.0600
     24 C24         0.5261    2.3647   45.3693 C.ar    1  ZINC000185180600   -0.0800
     25 C25        -0.1343    2.5600   46.5665 C.ar    1  ZINC000185180600   -0.1100
     26 C26        -2.7290    1.1338   48.6982 C.2     1  ZINC000185180600    0.0600
     27 C27        -3.1886    1.7063   49.8351 C.2     1  ZINC000185180600   -0.2500
     28 H28        -8.4528    4.1986   55.9649 H       1  ZINC000185180600    0.0500
     29 H29        -7.4022    4.5760   57.3513 H       1  ZINC000185180600    0.0600
     30 H30        -7.3240    5.5721   55.8783 H       1  ZINC000185180600    0.0500
     31 H31        -6.5354    2.6304   56.0815 H       1  ZINC000185180600    0.0700
     32 H32        -7.4351    3.1799   53.8697 H       1  ZINC000185180600    0.0500
     33 H33        -6.4216    4.6410   53.7892 H       1  ZINC000185180600    0.0500
     34 H34        -5.6648    3.0302   53.7615 H       1  ZINC000185180600    0.0500
     35 H35        -4.8508    5.1471   55.7022 H       1  ZINC000185180600    0.0700
     36 H36        -4.9540    4.1960   57.2031 H       1  ZINC000185180600    0.0800
     37 H37        -4.0038    1.9224   57.3199 H       1  ZINC000185180600    0.0600
     38 H38        -5.0863    1.4290   55.9958 H       1  ZINC000185180600    0.0700
     39 H39        -3.3332    1.1507   55.8627 H       1  ZINC000185180600    0.0600
     40 H40        -1.4125    2.5312   57.1453 H       1  ZINC000185180600    0.0600
     41 H41        -1.3526    4.2730   57.5064 H       1  ZINC000185180600    0.0700
     42 H42        -2.7843    3.3184   57.9617 H       1  ZINC000185180600    0.0800
     43 H43        -3.6579    4.8443   53.7876 H       1  ZINC000185180600    0.1500
     44 H44        -2.2037    5.7541   53.3120 H       1  ZINC000185180600    0.1200
     45 H45        -4.0443    4.0851   51.1536 H       1  ZINC000185180600    0.1400
     46 H46        -2.5902    4.9949   50.6780 H       1  ZINC000185180600    0.1000
     47 H47        -2.7146    0.4217   46.1064 H       1  ZINC000185180600    0.1400
     48 H48        -1.5380    0.0878   43.9708 H       1  ZINC000185180600    0.1500
     49 H49         1.4358    2.9078   45.1601 H       1  ZINC000185180600    0.1400
     50 H50         0.2610    3.2525   47.2949 H       1  ZINC000185180600    0.1500
     51 H51        -2.9296    0.1256   48.3666 H       1  ZINC000185180600    0.1800
     52 H52        -3.8251    1.2368   50.5704 H       1  ZINC000185180600    0.1700
@<TRIPOS>BOND
     1     1     2    1
     2     1    28    1
     3     1    29    1
     4     1    30    1
     5     2     3    1
     6     2     4    1
     7     2    31    1
     8     3    32    1
     9     3    33    1
    10     3    34    1
    11     4     5    1
    12     4    35    1
    13     4    36    1
    14     5     6    1
    15     5     7    1
    16     5     8    1
    17     7    37    1
    18     7    38    1
    19     7    39    1
    20     8     9    1
    21     8    10   am
    22     9    40    1
    23     9    41    1
    24     9    42    1
    25    10    11    2
    26    10    12    1
    27    12    13    1
    28    12    43    1
    29    12    44    1
    30    13    14    2
    31    13    15    1
    32    15    16    1
    33    15    45    1
    34    15    46    1
    35    16    27    1
    36    16    17    2
    37    17    18    1
    38    18    19    1
    39    18    26    1
    40    19    25   ar
    41    19    20   ar
    42    20    21   ar
    43    20    47    1
    44    21    22   ar
    45    21    48    1
    46    22    23    1
    47    22    24   ar
    48    24    25   ar
    49    24    49    1
    50    25    50    1
    51    26    27    2
    52    26    51    1
    53    27    52    1
@<TRIPOS>SUBSTRUCTURE
     1 ZINC000185180600        1 TEMP              0 ****  ****    0 ROOT


##########                                Name:    ZINC001707804910
##########                DOCK_Rotatable_Bonds:                   4
##########                         Heavy_Atoms:                  26
##########                    Molecular_Weight:             358.403
##########                DOCK_Rotatable_Bonds:                   4
##########                       Formal_Charge:          -0.0399996
##########                     HBond_Acceptors:                  10
##########                        HBond_Donors:                   0
##########                         Heavy_Atoms:                  26
##########                          Grid_Score:          -32.846680
##########                     Grid_vdw_energy:          -30.537498
##########                      Grid_es_energy:           -2.309181
##########           Internal_energy_repulsive:            8.802815

@<TRIPOS>MOLECULE
ZINC001707804910
 48 51 1 0 0
SMALL
USER_CHARGES


@<TRIPOS>ATOM
      1 C1         -4.2448    8.1431   49.8743 C.3     1  ZINC001707804910   -0.0700
      2 C2         -4.3794    6.7214   50.3558 C.2     1  ZINC001707804910    0.0700
      3 N3         -5.3247    6.2615   51.1348 N.2     1  ZINC001707804910   -0.2800
      4 N4         -5.0920    4.8964   51.3464 N.pl3   1  ZINC001707804910   -0.3700
      5 C5         -5.9146    3.9979   52.1601 C.3     1  ZINC001707804910    0.0900
      6 C6         -3.9763    4.5552   50.6682 C.2     1  ZINC001707804910    0.0500
      7 C7         -3.3547    3.1835   50.6128 C.3     1  ZINC001707804910    0.1800
      8 N8         -1.9068    3.3105   50.4300 N.pl3   1  ZINC001707804910   -0.4600
      9 C9         -1.0186    3.9200   51.2723 C.2     1  ZINC001707804910    0.1900
     10 C10        -1.3464    4.5958   52.5788 C.3     1  ZINC001707804910   -0.0700
     11 N11         0.1636    3.8074   50.7364 N.2     1  ZINC001707804910   -0.2800
     12 N12         0.0835    3.1732   49.6213 N.2     1  ZINC001707804910   -0.3000
     13 C13        -1.1638    2.8400   49.3867 C.2     1  ZINC001707804910    0.3500
     14 N14        -1.6381    2.1484   48.2834 N.3     1  ZINC001707804910   -0.4600
     15 C15        -1.8075    0.7206   48.5895 C.3     1  ZINC001707804910    0.0200
     16 C16        -2.3879    0.0071   47.3656 C.3     1  ZINC001707804910    0.0700
     17 O17        -1.5284    0.2219   46.2428 O.3     1  ZINC001707804910   -0.3600
     18 C18        -1.3417    1.6016   45.9163 C.3     1  ZINC001707804910    0.2000
     19 H19        -2.3019    2.0472   45.6559 H       1  ZINC001707804910    0.1000
     20 C20        -0.3988    1.7188   44.7466 C.2     1  ZINC001707804910    0.1600
     21 N21         0.1423    0.7318   44.0907 N.2     1  ZINC001707804910   -0.2500
     22 N22         0.8910    1.2005   43.1551 N.2     1  ZINC001707804910   -0.2900
     23 C23         0.8531    2.5023   43.1824 C.2     1  ZINC001707804910    0.1700
     24 C24         1.5890    3.4356   42.2558 C.3     1  ZINC001707804910   -0.0600
     25 O25         0.0335    2.8603   44.1851 O.3     1  ZINC001707804910   -0.2200
     26 C26        -0.7508    2.3312   47.1256 C.3     1  ZINC001707804910    0.0400
     27 C27        -3.5188    5.6643   50.0423 C.2     1  ZINC001707804910   -0.2300
     28 H28        -4.7869    8.2618   48.9363 H       1  ZINC001707804910    0.0800
     29 H29        -4.6586    8.8204   50.6214 H       1  ZINC001707804910    0.0700
     30 H30        -3.1915    8.3753   49.7172 H       1  ZINC001707804910    0.0800
     31 H31        -6.7518    3.6329   51.5651 H       1  ZINC001707804910    0.0800
     32 H32        -5.3104    3.1540   52.4931 H       1  ZINC001707804910    0.0900
     33 H33        -6.2937    4.5381   53.0276 H       1  ZINC001707804910    0.0900
     34 H34        -3.5585    2.6545   51.5438 H       1  ZINC001707804910    0.1100
     35 H35        -3.7789    2.6259   49.7778 H       1  ZINC001707804910    0.1200
     36 H36        -1.3887    3.8503   53.3729 H       1  ZINC001707804910    0.0900
     37 H37        -0.5758    5.3307   52.8111 H       1  ZINC001707804910    0.1000
     38 H38        -2.3120    5.0951   52.4974 H       1  ZINC001707804910    0.0700
     39 H39        -0.8403    0.2848   48.8402 H       1  ZINC001707804910    0.0700
     40 H40        -2.4880    0.6075   49.4335 H       1  ZINC001707804910    0.0900
     41 H41        -2.4618   -1.0614   47.5682 H       1  ZINC001707804910    0.1200
     42 H42        -3.3784    0.4062   47.1474 H       1  ZINC001707804910    0.0700
     43 H43         0.9667    3.6504   41.3870 H       1  ZINC001707804910    0.1000
     44 H44         1.8149    4.3644   42.7796 H       1  ZINC001707804910    0.1000
     45 H45         2.5177    2.9669   41.9304 H       1  ZINC001707804910    0.1100
     46 H46        -0.6600    3.3939   46.9008 H       1  ZINC001707804910    0.1000
     47 H47         0.2333    1.9213   47.3528 H       1  ZINC001707804910    0.0800
     48 H48        -2.6407    5.7241   49.4164 H       1  ZINC001707804910    0.1500
@<TRIPOS>BOND
     1     1     2    1
     2     1    28    1
     3     1    29    1
     4     1    30    1
     5     2    27    1
     6     2     3    2
     7     3     4    1
     8     4     5    1
     9     4     6    1
    10     5    31    1
    11     5    32    1
    12     5    33    1
    13     6     7    1
    14     6    27    2
    15     7     8    1
    16     7    34    1
    17     7    35    1
    18     8    13    1
    19     8     9    1
    20     9    10    1
    21     9    11    2
    22    10    36    1
    23    10    37    1
    24    10    38    1
    25    11    12    1
    26    12    13    2
    27    13    14    1
    28    14    26    1
    29    14    15    1
    30    15    16    1
    31    15    39    1
    32    15    40    1
    33    16    17    1
    34    16    41    1
    35    16    42    1
    36    17    18    1
    37    18    19    1
    38    18    20    1
    39    18    26    1
    40    20    25    1
    41    20    21    2
    42    21    22    1
    43    22    23    2
    44    23    24    1
    45    23    25    1
    46    24    43    1
    47    24    44    1
    48    24    45    1
    49    26    46    1
    50    26    47    1
    51    27    48    1
@<TRIPOS>SUBSTRUCTURE
     1 ZINC001707804910        1 TEMP              0 ****  ****    0 ROOT


##########                                Name:    ZINC001207290212
##########                DOCK_Rotatable_Bonds:                   8
##########                         Heavy_Atoms:                  23
##########                    Molecular_Weight:             344.435
##########                DOCK_Rotatable_Bonds:                   8
##########                       Formal_Charge:               -0.03
##########                     HBond_Acceptors:                   9
##########                        HBond_Donors:                   2
##########                         Heavy_Atoms:                  23
##########                          Grid_Score:          -32.840954
##########                     Grid_vdw_energy:          -29.781445
##########                      Grid_es_energy:           -3.059508
##########           Internal_energy_repulsive:            6.908471

@<TRIPOS>MOLECULE
ZINC001207290212
 47 48 1 0 0
SMALL
USER_CHARGES


@<TRIPOS>ATOM
      1 C1         -1.6623    3.5200   56.1714 C.3     1  ZINC001207290212   -0.1500
      2 C2         -2.4261    3.1064   54.9119 C.3     1  ZINC001207290212   -0.6300
      3 S3         -1.7657    4.0056   53.4816 S.o2    1  ZINC001207290212    2.6100
      4 O4         -2.0743    5.3894   53.5766 O.2     1  ZINC001207290212   -0.9500
      5 O5         -0.4472    3.5679   53.1828 O.2     1  ZINC001207290212   -0.9500
      6 N6         -2.6728    3.4717   52.2031 N.am    1  ZINC001207290212   -1.1100
      7 C7         -2.4179    3.9904   50.8569 C.3     1  ZINC001207290212    0.0900
      8 C8         -1.5834    2.9998   50.0865 C.2     1  ZINC001207290212    0.5100
      9 O9         -0.3840    2.9525   50.2605 O.2     1  ZINC001207290212   -0.5300
     10 N10        -2.1698    2.1667   49.2043 N.am    1  ZINC001207290212   -0.7200
     11 C11        -1.3588    1.2026   48.4567 C.3     1  ZINC001207290212    0.1400
     12 H12        -0.7382    0.6217   49.1390 H       1  ZINC001207290212    0.1000
     13 C13        -0.4795    1.9311   47.4235 C.3     1  ZINC001207290212    0.0200
     14 N14        -0.8946    1.4534   46.0868 N.3     1  ZINC001207290212   -0.5100
     15 C15         0.2522    1.3902   45.1708 C.3     1  ZINC001207290212    0.1300
     16 C16         0.5033    2.7559   44.5854 C.2     1  ZINC001207290212    0.0000
     17 C17         0.7331    3.0337   43.2914 C.2     1  ZINC001207290212   -0.0700
     18 O18         0.9056    4.3667   43.1965 O.3     1  ZINC001207290212   -0.2000
     19 C19         0.7798    4.8835   44.4261 C.2     1  ZINC001207290212    0.1900
     20 C20         0.8985    6.3433   44.7809 C.3     1  ZINC001207290212   -0.0600
     21 N21         0.5318    3.9170   45.2633 N.2     1  ZINC001207290212   -0.4700
     22 C22        -1.4788    0.1048   46.3021 C.3     1  ZINC001207290212    0.0400
     23 C23        -2.2673    0.2656   47.6280 C.3     1  ZINC001207290212   -0.1000
     24 H24        -3.2362    0.7308   47.4466 H       1  ZINC001207290212    0.0900
     25 C25        -2.4396   -1.0866   48.3227 C.3     1  ZINC001207290212   -0.1400
     26 H26        -0.6053    3.2829   56.0497 H       1  ZINC001207290212    0.0700
     27 H27        -1.7782    4.5920   56.3310 H       1  ZINC001207290212    0.0700
     28 H28        -2.0591    2.9797   57.0309 H       1  ZINC001207290212    0.0800
     29 H29        -2.3102    2.0344   54.7523 H       1  ZINC001207290212    0.1300
     30 H30        -3.4831    3.3434   55.0337 H       1  ZINC001207290212    0.1300
     31 H31        -3.3729    2.8156   52.3455 H       1  ZINC001207290212    0.4300
     32 H32        -3.3659    4.1452   50.3417 H       1  ZINC001207290212    0.1000
     33 H33        -1.8839    4.9380   50.9278 H       1  ZINC001207290212    0.1100
     34 H34        -3.1289    2.2055   49.0643 H       1  ZINC001207290212    0.4100
     35 H35        -0.6341    3.0076   47.4976 H       1  ZINC001207290212    0.0800
     36 H36         0.5700    1.6915   47.5941 H       1  ZINC001207290212    0.0500
     37 H37         1.1360    1.0611   45.7173 H       1  ZINC001207290212    0.0600
     38 H38         0.0376    0.6846   44.3682 H       1  ZINC001207290212    0.1000
     39 H39         0.7725    2.3223   42.4797 H       1  ZINC001207290212    0.2100
     40 H40         1.1042    6.9208   43.8796 H       1  ZINC001207290212    0.0900
     41 H41        -0.0354    6.6860   45.2267 H       1  ZINC001207290212    0.1000
     42 H42         1.7124    6.4791   45.4932 H       1  ZINC001207290212    0.1000
     43 H43        -2.1498   -0.1587   45.4846 H       1  ZINC001207290212    0.0900
     44 H44        -0.6924   -0.6420   46.4117 H       1  ZINC001207290212    0.0500
     45 H45        -1.4597   -1.5204   48.5219 H       1  ZINC001207290212    0.0600
     46 H46        -2.9728   -0.9466   49.2631 H       1  ZINC001207290212    0.0600
     47 H47        -3.0093   -1.7562   47.6783 H       1  ZINC001207290212    0.0600
@<TRIPOS>BOND
     1     1     2    1
     2     1    26    1
     3     1    27    1
     4     1    28    1
     5     2     3    1
     6     2    29    1
     7     2    30    1
     8     3     4    2
     9     3     5    2
    10     3     6   am
    11     6     7    1
    12     6    31    1
    13     7     8    1
    14     7    32    1
    15     7    33    1
    16     8     9    2
    17     8    10   am
    18    10    11    1
    19    10    34    1
    20    11    12    1
    21    11    23    1
    22    11    13    1
    23    13    14    1
    24    13    35    1
    25    13    36    1
    26    14    15    1
    27    14    22    1
    28    15    16    1
    29    15    37    1
    30    15    38    1
    31    16    21    1
    32    16    17    2
    33    17    18    1
    34    17    39    1
    35    18    19    1
    36    19    20    1
    37    19    21    2
    38    20    40    1
    39    20    41    1
    40    20    42    1
    41    22    23    1
    42    22    43    1
    43    22    44    1
    44    23    24    1
    45    23    25    1
    46    25    45    1
    47    25    46    1
    48    25    47    1
@<TRIPOS>SUBSTRUCTURE
     1 ZINC001207290212        1 TEMP              0 ****  ****    0 ROOT


##########                                Name:    ZINC000110375116
##########                DOCK_Rotatable_Bonds:                  10
##########                         Heavy_Atoms:                  27
##########                    Molecular_Weight:             396.511
##########                DOCK_Rotatable_Bonds:                  10
##########                       Formal_Charge:        -2.23517e-07
##########                     HBond_Acceptors:                   9
##########                        HBond_Donors:                   0
##########                         Heavy_Atoms:                  27
##########                          Grid_Score:          -32.725281
##########                     Grid_vdw_energy:          -31.300209
##########                      Grid_es_energy:           -1.425071
##########           Internal_energy_repulsive:           32.350666

@<TRIPOS>MOLECULE
ZINC000110375116
 55 56 1 0 0
SMALL
USER_CHARGES


@<TRIPOS>ATOM
      1 C1        -14.8262    1.1057   62.6718 C.3     1  ZINC000110375116   -0.1700
      2 C2        -14.2830    1.1724   61.2430 C.3     1  ZINC000110375116    0.1000
      3 N3        -13.7407   -0.1351   60.8653 N.am    1  ZINC000110375116   -0.6200
      4 C4        -12.3221   -0.4299   61.0814 C.3     1  ZINC000110375116    0.1100
      5 C5        -12.1628   -1.2664   62.3525 C.3     1  ZINC000110375116   -0.1700
      6 C6        -14.5469   -1.0668   60.3190 C.2     1  ZINC000110375116    0.5100
      7 O7        -15.7211   -0.8223   60.1387 O.2     1  ZINC000110375116   -0.5300
      8 C8        -13.9894   -2.4124   59.9322 C.3     1  ZINC000110375116   -0.1400
      9 C9        -14.9200   -3.0769   58.9157 C.3     1  ZINC000110375116   -0.0900
     10 C10       -14.6259   -2.5260   57.5189 C.3     1  ZINC000110375116   -0.1400
     11 C11       -13.4851   -3.2961   56.9052 C.2     1  ZINC000110375116    0.5200
     12 O12       -12.9571   -4.1948   57.5252 O.2     1  ZINC000110375116   -0.5300
     13 N13       -13.0515   -2.9860   55.6672 N.am    1  ZINC000110375116   -0.6200
     14 C14       -13.6789   -1.8967   54.9060 C.3     1  ZINC000110375116    0.0900
     15 C15       -12.5903   -0.9000   54.4889 C.3     1  ZINC000110375116    0.1000
     16 N16       -11.4814   -1.6449   53.8764 N.am    1  ZINC000110375116   -1.0000
     17 S17       -10.9480   -1.2633   52.3558 S.o2    1  ZINC000110375116    2.7000
     18 O18        -9.7893   -2.0534   52.1270 O.2     1  ZINC000110375116   -0.9400
     19 O19       -12.0897   -1.2949   51.5104 O.2     1  ZINC000110375116   -0.9500
     20 C20       -10.4067    0.4130   52.3984 C.ar    1  ZINC000110375116   -0.7400
     21 C21        -9.2722    0.7662   53.1125 C.ar    1  ZINC000110375116    0.0200
     22 C22        -8.8833    2.0973   53.1174 C.ar    1  ZINC000110375116   -0.1900
     23 C23        -9.6340    3.0208   52.4152 C.ar    1  ZINC000110375116    0.1500
     24 N24       -10.7081    2.6486   51.7466 N.ar    1  ZINC000110375116   -0.4900
     25 C25       -11.1045    1.3914   51.7154 C.ar    1  ZINC000110375116    0.2000
     26 C26       -10.8540   -2.7343   54.6376 C.3     1  ZINC000110375116    0.1000
     27 C27       -11.9389   -3.7273   55.0569 C.3     1  ZINC000110375116    0.1000
     28 H28       -15.2297    2.0785   62.9529 H       1  ZINC000110375116    0.0700
     29 H29       -15.6152    0.3557   62.7260 H       1  ZINC000110375116    0.0600
     30 H30       -14.0206    0.8355   63.3546 H       1  ZINC000110375116    0.0600
     31 H31       -15.0886    1.4425   60.5603 H       1  ZINC000110375116    0.0800
     32 H32       -13.4939    1.9224   61.1889 H       1  ZINC000110375116    0.0800
     33 H33       -11.9326   -0.9865   60.2290 H       1  ZINC000110375116    0.0800
     34 H34       -11.7693    0.5034   61.1889 H       1  ZINC000110375116    0.0800
     35 H35       -11.1073   -1.4857   62.5133 H       1  ZINC000110375116    0.0700
     36 H36       -12.5521   -0.7097   63.2050 H       1  ZINC000110375116    0.0500
     37 H37       -12.7155   -2.1996   62.2449 H       1  ZINC000110375116    0.0600
     38 H38       -13.0016   -2.2830   59.4901 H       1  ZINC000110375116    0.0900
     39 H39       -13.9111   -3.0417   60.8188 H       1  ZINC000110375116    0.0900
     40 H40       -14.7561   -4.1545   58.9232 H       1  ZINC000110375116    0.0800
     41 H41       -15.9562   -2.8651   59.1790 H       1  ZINC000110375116    0.0800
     42 H42       -15.5123   -2.6297   56.8933 H       1  ZINC000110375116    0.1000
     43 H43       -14.3549   -1.4728   57.5933 H       1  ZINC000110375116    0.1000
     44 H44       -14.1630   -2.3026   54.0178 H       1  ZINC000110375116    0.0800
     45 H45       -14.4170   -1.3924   55.5298 H       1  ZINC000110375116    0.1000
     46 H46       -12.9989   -0.1929   53.7671 H       1  ZINC000110375116    0.1100
     47 H47       -12.2299   -0.3634   55.3666 H       1  ZINC000110375116    0.0800
     48 H48        -8.7050    0.0226   53.6525 H       1  ZINC000110375116    0.1500
     49 H49        -8.0049    2.4083   53.6633 H       1  ZINC000110375116    0.1500
     50 H50        -9.3381    4.0594   52.4144 H       1  ZINC000110375116    0.1700
     51 H51       -11.9894    1.1244   51.1568 H       1  ZINC000110375116    0.1700
     52 H52       -10.1158   -3.2386   54.0139 H       1  ZINC000110375116    0.1100
     53 H53       -10.3700   -2.3283   55.5258 H       1  ZINC000110375116    0.0800
     54 H54       -11.5289   -4.4337   55.7787 H       1  ZINC000110375116    0.1100
     55 H55       -12.3014   -4.2647   54.1806 H       1  ZINC000110375116    0.0800
@<TRIPOS>BOND
     1     1     2    1
     2     1    28    1
     3     1    29    1
     4     1    30    1
     5     2     3    1
     6     2    31    1
     7     2    32    1
     8     3     4    1
     9     3     6   am
    10     4     5    1
    11     4    33    1
    12     4    34    1
    13     5    35    1
    14     5    36    1
    15     5    37    1
    16     6     7    2
    17     6     8    1
    18     8     9    1
    19     8    38    1
    20     8    39    1
    21     9    10    1
    22     9    40    1
    23     9    41    1
    24    10    11    1
    25    10    42    1
    26    10    43    1
    27    11    12    2
    28    11    13   am
    29    13    27    1
    30    13    14    1
    31    14    15    1
    32    14    44    1
    33    14    45    1
    34    15    16    1
    35    15    46    1
    36    15    47    1
    37    16    17   am
    38    16    26    1
    39    17    18    2
    40    17    19    2
    41    17    20    1
    42    20    25   ar
    43    20    21   ar
    44    21    22   ar
    45    21    48    1
    46    22    23   ar
    47    22    49    1
    48    23    24   ar
    49    23    50    1
    50    24    25   ar
    51    25    51    1
    52    26    27    1
    53    26    52    1
    54    26    53    1
    55    27    54    1
    56    27    55    1
@<TRIPOS>SUBSTRUCTURE
     1 ZINC000110375116        1 TEMP              0 ****  ****    0 ROOT


##########                                Name:    ZINC000788423111
##########                DOCK_Rotatable_Bonds:                   7
##########                         Heavy_Atoms:                  23
##########                    Molecular_Weight:             399.243
##########                DOCK_Rotatable_Bonds:                   7
##########                       Formal_Charge:         1.04308e-07
##########                     HBond_Acceptors:                   8
##########                        HBond_Donors:                   1
##########                         Heavy_Atoms:                  23
##########                          Grid_Score:          -32.721977
##########                     Grid_vdw_energy:          -31.794989
##########                      Grid_es_energy:           -0.926988
##########           Internal_energy_repulsive:            3.634650

@<TRIPOS>MOLECULE
ZINC000788423111
 35 37 1 0 0
SMALL
USER_CHARGES


@<TRIPOS>ATOM
      1 O1        -14.2213   -3.7083   58.8126 O.3     1  ZINC000788423111   -0.5400
      2 C2        -13.2002   -3.3935   57.8637 C.3     1  ZINC000788423111    0.1000
      3 H3        -12.5912   -4.2783   57.6783 H       1  ZINC000788423111    0.1300
      4 C4        -12.3172   -2.2735   58.4176 C.3     1  ZINC000788423111    0.0300
      5 O5        -11.2900   -2.8373   59.2358 O.3     1  ZINC000788423111   -0.2900
      6 C6        -10.5154   -1.9698   59.9386 C.ar    1  ZINC000788423111    0.1700
      7 C7        -10.4719   -2.0424   61.3227 C.ar    1  ZINC000788423111   -0.2400
      8 C8         -9.6825   -1.1577   62.0364 C.ar    1  ZINC000788423111    0.1500
      9 F9         -9.6394   -1.2275   63.3849 F       1  ZINC000788423111   -0.1300
     10 C10        -8.9363   -0.2014   61.3687 C.ar    1  ZINC000788423111   -0.1600
     11 C11        -8.9795   -0.1281   59.9879 C.ar    1  ZINC000788423111   -0.0300
     12 Br12       -7.9593    1.1791   59.0789 Br      1  ZINC000788423111   -0.0200
     13 C13        -9.7625   -1.0138   59.2716 C.ar    1  ZINC000788423111   -0.1300
     14 C14       -13.8448   -2.9344   56.5543 C.3     1  ZINC000788423111    0.1000
     15 N15       -12.8134   -2.8022   55.5224 N.pl3   1  ZINC000788423111   -0.1300
     16 N16       -12.1147   -3.7698   55.0402 N.2     1  ZINC000788423111   -0.0500
     17 N17       -11.3036   -3.3009   54.1538 N.2     1  ZINC000788423111   -0.2600
     18 C18       -11.5116   -1.9769   54.0847 C.2     1  ZINC000788423111    0.2400
     19 C19       -10.8106   -1.0167   53.2045 C.2     1  ZINC000788423111   -0.1300
     20 C20        -9.8271   -1.3300   52.3387 C.2     1  ZINC000788423111   -0.0800
     21 C21        -9.3255   -0.2613   51.6242 C.2     1  ZINC000788423111   -0.1400
     22 C22        -9.8899    0.9180   51.8989 C.2     1  ZINC000788423111   -0.2000
     23 S23       -11.1373    0.7096   53.1209 S.3     1  ZINC000788423111    0.1700
     24 N24       -12.4677   -1.6998   54.9513 N.2     1  ZINC000788423111   -0.2900
     25 H25       -14.8083   -4.4251   58.5355 H       1  ZINC000788423111    0.3800
     26 H26       -11.8638   -1.7259   57.5914 H       1  ZINC000788423111    0.0900
     27 H27       -12.9246   -1.5933   59.0145 H       1  ZINC000788423111    0.0800
     28 H28       -11.0540   -2.7884   61.8434 H       1  ZINC000788423111    0.1500
     29 H29        -8.3202    0.4883   61.9265 H       1  ZINC000788423111    0.1500
     30 H30        -9.7954   -0.9561   58.1937 H       1  ZINC000788423111    0.1500
     31 H31       -14.5847   -3.6689   56.2364 H       1  ZINC000788423111    0.1300
     32 H32       -14.3315   -1.9711   56.7071 H       1  ZINC000788423111    0.1300
     33 H33        -9.4599   -2.3378   52.2139 H       1  ZINC000788423111    0.1500
     34 H34        -8.5347   -0.3703   50.8967 H       1  ZINC000788423111    0.1500
     35 H35        -9.6234    1.8571   51.4369 H       1  ZINC000788423111    0.1700
@<TRIPOS>BOND
     1     1     2    1
     2     1    25    1
     3     2     3    1
     4     2     4    1
     5     2    14    1
     6     4     5    1
     7     4    26    1
     8     4    27    1
     9     5     6    1
    10     6    13   ar
    11     6     7   ar
    12     7     8   ar
    13     7    28    1
    14     8     9    1
    15     8    10   ar
    16    10    11   ar
    17    10    29    1
    18    11    12    1
    19    11    13   ar
    20    13    30    1
    21    14    15    1
    22    14    31    1
    23    14    32    1
    24    15    24    1
    25    15    16    1
    26    16    17    2
    27    17    18    1
    28    18    19    1
    29    18    24    2
    30    19    23    1
    31    19    20    2
    32    20    21    1
    33    20    33    1
    34    21    22    2
    35    21    34    1
    36    22    23    1
    37    22    35    1
@<TRIPOS>SUBSTRUCTURE
     1 ZINC000788423111        1 TEMP              0 ****  ****    0 ROOT


##########                                Name:    ZINC000809503567
##########                DOCK_Rotatable_Bonds:                   9
##########                         Heavy_Atoms:                  26
##########                    Molecular_Weight:             353.378
##########                DOCK_Rotatable_Bonds:                   9
##########                       Formal_Charge:          -0.0200002
##########                     HBond_Acceptors:                   7
##########                        HBond_Donors:                   1
##########                         Heavy_Atoms:                  26
##########                          Grid_Score:          -32.709389
##########                     Grid_vdw_energy:          -32.973534
##########                      Grid_es_energy:            0.264145
##########           Internal_energy_repulsive:           11.213212

@<TRIPOS>MOLECULE
ZINC000809503567
 45 46 1 0 0
SMALL
USER_CHARGES


@<TRIPOS>ATOM
      1 C1          0.5809    1.9117   43.8619 C.3     1  ZINC000809503567    0.0200
      2 O2         -0.2769    1.0053   44.5581 O.3     1  ZINC000809503567   -0.3100
      3 C3         -0.8084    1.4370   45.7297 C.ar    1  ZINC000809503567    0.1900
      4 C4         -0.4124    2.6511   46.2683 C.ar    1  ZINC000809503567   -0.2100
      5 C5         -0.9541    3.0894   47.4611 C.ar    1  ZINC000809503567   -0.0200
      6 C6         -1.8945    2.3217   48.1276 C.ar    1  ZINC000809503567   -0.1500
      7 C7         -2.4771    2.8113   49.4282 C.3     1  ZINC000809503567    0.1700
      8 N8         -1.4006    3.0090   50.4019 N.am    1  ZINC000809503567   -0.7000
      9 C9         -1.6632    3.5943   51.5873 C.2     1  ZINC000809503567    0.5100
     10 O10        -2.7909    3.9589   51.8473 O.2     1  ZINC000809503567   -0.4900
     11 C11        -0.5652    3.7942   52.5813 C.2     1  ZINC000809503567    0.5100
     12 O12         0.4945    4.2682   52.2278 O.2     1  ZINC000809503567   -0.5000
     13 N13        -0.7520    3.4481   53.8704 N.am    1  ZINC000809503567   -0.4600
     14 C14         0.3248    3.6424   54.8445 C.3     1  ZINC000809503567    0.0800
     15 O15        -1.9892    2.8966   54.2832 O.3     1  ZINC000809503567   -0.1100
     16 C16        -2.6280    3.6239   55.3344 C.3     1  ZINC000809503567    0.0800
     17 C17        -4.0288    3.1026   55.5267 C.ar    1  ZINC000809503567   -0.0900
     18 C18        -4.2595    2.0388   56.3787 C.ar    1  ZINC000809503567   -0.1000
     19 C19        -5.5445    1.5606   56.5551 C.ar    1  ZINC000809503567   -0.1300
     20 C20        -6.5988    2.1465   55.8798 C.ar    1  ZINC000809503567   -0.1100
     21 C21        -6.3682    3.2109   55.0284 C.ar    1  ZINC000809503567   -0.1300
     22 C22        -5.0838    3.6918   54.8554 C.ar    1  ZINC000809503567   -0.0800
     23 C23        -2.3003    1.1117   47.6061 C.ar    1  ZINC000809503567   -0.0100
     24 C24        -1.7648    0.6594   46.3979 C.ar    1  ZINC000809503567   -0.0600
     25 C25        -2.1819   -0.5964   45.8506 C.1     1  ZINC000809503567    0.2600
     26 N26        -2.5128   -1.5927   45.4165 N.1     1  ZINC000809503567   -0.4100
     27 H27         1.4321    2.1645   44.4940 H       1  ZINC000809503567    0.0600
     28 H28         0.9364    1.4432   42.9441 H       1  ZINC000809503567    0.1100
     29 H29         0.0285    2.8188   43.6164 H       1  ZINC000809503567    0.0600
     30 H30         0.3210    3.2552   45.7550 H       1  ZINC000809503567    0.1400
     31 H31        -0.6422    4.0362   47.8766 H       1  ZINC000809503567    0.1400
     32 H32        -2.9945    3.7563   49.2617 H       1  ZINC000809503567    0.0900
     33 H33        -3.1824    2.0736   49.8109 H       1  ZINC000809503567    0.0900
     34 H34        -0.4988    2.7186   50.1936 H       1  ZINC000809503567    0.4100
     35 H35         0.2387    4.6342   55.2883 H       1  ZINC000809503567    0.0800
     36 H36         0.2483    2.8867   55.6263 H       1  ZINC000809503567    0.0800
     37 H37         1.2886    3.5508   54.3438 H       1  ZINC000809503567    0.0900
     38 H38        -2.0634    3.4981   56.2584 H       1  ZINC000809503567    0.0700
     39 H39        -2.6665    4.6814   55.0734 H       1  ZINC000809503567    0.0600
     40 H40        -3.4359    1.5811   56.9063 H       1  ZINC000809503567    0.1200
     41 H41        -5.7247    0.7290   57.2202 H       1  ZINC000809503567    0.1200
     42 H42        -7.6025    1.7724   56.0170 H       1  ZINC000809503567    0.1200
     43 H43        -7.1919    3.6684   54.5005 H       1  ZINC000809503567    0.1200
     44 H44        -4.9036    4.5235   54.1902 H       1  ZINC000809503567    0.1300
     45 H45        -3.0339    0.5162   48.1291 H       1  ZINC000809503567    0.1400
@<TRIPOS>BOND
     1     1     2    1
     2     1    27    1
     3     1    28    1
     4     1    29    1
     5     2     3    1
     6     3    24   ar
     7     3     4   ar
     8     4     5   ar
     9     4    30    1
    10     5     6   ar
    11     5    31    1
    12     6     7    1
    13     6    23   ar
    14     7     8    1
    15     7    32    1
    16     7    33    1
    17     8     9   am
    18     8    34    1
    19     9    10    2
    20     9    11    1
    21    11    12    2
    22    11    13   am
    23    13    14    1
    24    13    15    1
    25    14    35    1
    26    14    36    1
    27    14    37    1
    28    15    16    1
    29    16    17    1
    30    16    38    1
    31    16    39    1
    32    17    22   ar
    33    17    18   ar
    34    18    19   ar
    35    18    40    1
    36    19    20   ar
    37    19    41    1
    38    20    21   ar
    39    20    42    1
    40    21    22   ar
    41    21    43    1
    42    22    44    1
    43    23    24   ar
    44    23    45    1
    45    24    25    1
    46    25    26    3
@<TRIPOS>SUBSTRUCTURE
     1 ZINC000809503567        1 TEMP              0 ****  ****    0 ROOT


##########                                Name:    ZINC000864730443
##########                DOCK_Rotatable_Bonds:                  10
##########                         Heavy_Atoms:                  25
##########                    Molecular_Weight:             356.462
##########                DOCK_Rotatable_Bonds:                  10
##########                       Formal_Charge:           0.0299988
##########                     HBond_Acceptors:                   7
##########                        HBond_Donors:                   2
##########                         Heavy_Atoms:                  25
##########                          Grid_Score:          -32.684628
##########                     Grid_vdw_energy:          -30.989986
##########                      Grid_es_energy:           -1.694640
##########           Internal_energy_repulsive:           34.150932

@<TRIPOS>MOLECULE
ZINC000864730443
 57 58 1 0 0
SMALL
USER_CHARGES


@<TRIPOS>ATOM
      1 C1         -2.9769    6.0702   50.1163 C.3     1  ZINC000864730443   -0.1800
      2 C2         -3.3176    5.0264   51.1818 C.3     1  ZINC000864730443    0.1400
      3 C3         -2.4387    5.2497   52.4141 C.3     1  ZINC000864730443   -0.1800
      4 C4         -4.7902    5.1605   51.5747 C.3     1  ZINC000864730443   -0.1400
      5 O5         -3.0776    3.6965   50.6507 O.3     1  ZINC000864730443   -0.3600
      6 C6         -1.9316    3.5079   49.9696 C.2     1  ZINC000864730443    0.6500
      7 O7         -0.8896    3.9658   50.3953 O.2     1  ZINC000864730443   -0.5700
      8 N8         -1.9401    2.8114   48.8160 N.am    1  ZINC000864730443   -0.7100
      9 C9         -0.6927    2.6046   48.0758 C.3     1  ZINC000864730443    0.1500
     10 C10        -0.7064    1.2173   47.4308 C.3     1  ZINC000864730443   -0.1300
     11 C11         0.6094    0.9707   46.7389 C.2     1  ZINC000864730443    0.5300
     12 O12         1.5116    0.4173   47.3312 O.2     1  ZINC000864730443   -0.5300
     13 N13         0.7837    1.3650   45.4620 N.am    1  ZINC000864730443   -0.7200
     14 C14         2.0628    1.1252   44.7893 C.3     1  ZINC000864730443    0.1200
     15 C15         2.0180    1.7210   43.3808 C.3     1  ZINC000864730443   -0.1300
     16 C16         2.1019    3.2462   43.4694 C.3     1  ZINC000864730443    0.0800
     17 H17         2.5956    3.6492   42.5851 H       1  ZINC000864730443    0.0800
     18 C18         0.6850    3.8550   43.6187 C.3     1  ZINC000864730443   -0.1500
     19 C19         1.0153    5.2030   44.3158 C.3     1  ZINC000864730443   -0.1600
     20 C20         2.2196    4.8255   45.2050 C.3     1  ZINC000864730443    0.0500
     21 O21         2.8082    3.6386   44.6570 O.3     1  ZINC000864730443   -0.3800
     22 C22        -0.9261    0.1531   48.5103 C.3     1  ZINC000864730443   -0.1000
     23 C23        -1.0157   -1.2233   47.8441 C.3     1  ZINC000864730443   -0.1600
     24 C24        -2.1415   -1.2071   46.8067 C.3     1  ZINC000864730443    0.0600
     25 O25        -1.8914   -0.1751   45.8505 O.3     1  ZINC000864730443   -0.3700
     26 C26        -1.8441    1.1394   46.4094 C.3     1  ZINC000864730443    0.0800
     27 H27        -1.9278    5.9747   49.8365 H       1  ZINC000864730443    0.0900
     28 H28        -3.6031    5.9112   49.2385 H       1  ZINC000864730443    0.0600
     29 H29        -3.1571    7.0685   50.5151 H       1  ZINC000864730443    0.0700
     30 H30        -2.6189    6.2481   52.8127 H       1  ZINC000864730443    0.0700
     31 H31        -2.6815    4.5061   53.1731 H       1  ZINC000864730443    0.0600
     32 H32        -1.3896    5.1542   52.1342 H       1  ZINC000864730443    0.0900
     33 H33        -5.4165    5.0014   50.6968 H       1  ZINC000864730443    0.0700
     34 H34        -5.0330    4.4169   52.3338 H       1  ZINC000864730443    0.0700
     35 H35        -4.9704    6.1589   51.9734 H       1  ZINC000864730443    0.0800
     36 H36        -2.7721    2.4469   48.4755 H       1  ZINC000864730443    0.4100
     37 H37        -0.6001    3.3650   47.3004 H       1  ZINC000864730443    0.0900
     38 H38         0.1523    2.6788   48.7603 H       1  ZINC000864730443    0.0800
     39 H39         0.0621    1.8076   44.9882 H       1  ZINC000864730443    0.4000
     40 H40         2.8657    1.5953   45.3574 H       1  ZINC000864730443    0.0700
     41 H41         2.2437    0.0523   44.7245 H       1  ZINC000864730443    0.0700
     42 H42         2.8597    1.3439   42.7999 H       1  ZINC000864730443    0.0800
     43 H43         1.0847    1.4360   42.8953 H       1  ZINC000864730443    0.0800
     44 H44         0.2232    4.0190   42.6451 H       1  ZINC000864730443    0.0900
     45 H45         0.0536    3.2304   44.2507 H       1  ZINC000864730443    0.0800
     46 H46         1.2960    5.9599   43.5834 H       1  ZINC000864730443    0.0800
     47 H47         0.1758    5.5417   44.9230 H       1  ZINC000864730443    0.0800
     48 H48         2.9501    5.6346   45.2009 H       1  ZINC000864730443    0.0700
     49 H49         1.8819    4.6357   46.2237 H       1  ZINC000864730443    0.0700
     50 H50        -0.0905    0.1657   49.2102 H       1  ZINC000864730443    0.0800
     51 H51        -1.8535    0.3610   49.0441 H       1  ZINC000864730443    0.0800
     52 H52        -0.0703   -1.4522   47.3523 H       1  ZINC000864730443    0.0900
     53 H53        -1.2271   -1.9804   48.5993 H       1  ZINC000864730443    0.0800
     54 H54        -2.1820   -2.1708   46.2992 H       1  ZINC000864730443    0.1000
     55 H55        -3.0923   -1.0182   47.3051 H       1  ZINC000864730443    0.0500
     56 H56        -2.7911    1.3588   46.9025 H       1  ZINC000864730443    0.0700
     57 H57        -1.6705    1.8658   45.6157 H       1  ZINC000864730443    0.1000
@<TRIPOS>BOND
     1     1     2    1
     2     1    27    1
     3     1    28    1
     4     1    29    1
     5     2     3    1
     6     2     4    1
     7     2     5    1
     8     3    30    1
     9     3    31    1
    10     3    32    1
    11     4    33    1
    12     4    34    1
    13     4    35    1
    14     5     6    1
    15     6     7    2
    16     6     8   am
    17     8     9    1
    18     8    36    1
    19     9    10    1
    20     9    37    1
    21     9    38    1
    22    10    26    1
    23    10    11    1
    24    10    22    1
    25    11    12    2
    26    11    13   am
    27    13    14    1
    28    13    39    1
    29    14    15    1
    30    14    40    1
    31    14    41    1
    32    15    16    1
    33    15    42    1
    34    15    43    1
    35    16    17    1
    36    16    21    1
    37    16    18    1
    38    18    19    1
    39    18    44    1
    40    18    45    1
    41    19    20    1
    42    19    46    1
    43    19    47    1
    44    20    21    1
    45    20    48    1
    46    20    49    1
    47    22    23    1
    48    22    50    1
    49    22    51    1
    50    23    24    1
    51    23    52    1
    52    23    53    1
    53    24    25    1
    54    24    54    1
    55    24    55    1
    56    25    26    1
    57    26    56    1
    58    26    57    1
@<TRIPOS>SUBSTRUCTURE
     1 ZINC000864730443        1 TEMP              0 ****  ****    0 ROOT


##########                                Name:    ZINC000499369364
##########                DOCK_Rotatable_Bonds:                   9
##########                         Heavy_Atoms:                  25
##########                    Molecular_Weight:             384.527
##########                DOCK_Rotatable_Bonds:                   9
##########                       Formal_Charge:        -5.88596e-07
##########                     HBond_Acceptors:                  10
##########                        HBond_Donors:                   1
##########                         Heavy_Atoms:                  25
##########                          Grid_Score:          -32.663921
##########                     Grid_vdw_energy:          -30.724884
##########                      Grid_es_energy:           -1.939036
##########           Internal_energy_repulsive:           29.915760

@<TRIPOS>MOLECULE
ZINC000499369364
 49 51 1 0 0
SMALL
USER_CHARGES


@<TRIPOS>ATOM
      1 C1         -3.4304    5.8318   50.9779 C.3     1  ZINC000499369364   -0.1500
      2 C2         -2.1242    5.2465   51.5186 C.3     1  ZINC000499369364   -0.1000
      3 C3         -2.2665    4.9814   53.0187 C.3     1  ZINC000499369364   -0.1500
      4 C4         -1.8158    3.9338   50.7957 C.3     1  ZINC000499369364    0.1500
      5 H5         -0.8892    3.5129   51.1860 H       1  ZINC000499369364    0.0900
      6 C6         -2.9609    2.9450   51.0234 C.3     1  ZINC000499369364   -0.1700
      7 N7         -1.6696    4.1895   49.3605 N.am    1  ZINC000499369364   -0.7200
      8 C8         -0.5055    4.6658   48.8760 C.2     1  ZINC000499369364    0.5100
      9 O9          0.4214    4.8812   49.6279 O.2     1  ZINC000499369364   -0.5100
     10 C10        -0.3557    4.9305   47.4001 C.3     1  ZINC000499369364    0.1200
     11 H11        -1.0857    4.3267   46.8609 H       1  ZINC000499369364    0.1200
     12 C12        -0.6498    6.4238   47.1308 C.3     1  ZINC000499369364   -0.0800
     13 S13         1.0534    7.1230   47.0711 S.3     1  ZINC000499369364   -0.2400
     14 C14         1.7933    5.5912   46.3678 C.3     1  ZINC000499369364    0.1400
     15 N15         0.9803    4.5295   46.9862 N.am    1  ZINC000499369364   -0.6000
     16 C16         1.4390    3.2736   47.1550 C.2     1  ZINC000499369364    0.5600
     17 O17         2.5597    2.9835   46.7932 O.2     1  ZINC000499369364   -0.5000
     18 C18         0.5595    2.2296   47.7934 C.3     1  ZINC000499369364   -0.1500
     19 S19         1.1470    0.5812   47.3311 S.3     1  ZINC000499369364    0.1300
     20 C20        -0.3373   -0.3439   47.5454 C.2     1  ZINC000499369364    0.2000
     21 N21        -0.5345   -1.3162   48.4091 N.2     1  ZINC000499369364   -0.3400
     22 N22        -1.7285   -1.7769   48.3029 N.2     1  ZINC000499369364   -0.0300
     23 N23        -2.3718   -1.1460   47.3811 N.2     1  ZINC000499369364   -0.0800
     24 N24        -1.4916   -0.1838   46.8559 N.pl3   1  ZINC000499369364   -0.3300
     25 C25        -1.7622    0.7794   45.7859 C.3     1  ZINC000499369364    0.0500
     26 C26        -0.7888    0.8168   44.6061 C.3     1  ZINC000499369364   -0.1500
     27 C27        -2.1874    0.2232   44.4255 C.3     1  ZINC000499369364   -0.1600
     28 H28        -3.6501    6.7670   51.4930 H       1  ZINC000499369364    0.0600
     29 H29        -3.3289    6.0207   49.9093 H       1  ZINC000499369364    0.0600
     30 H30        -4.2426    5.1247   51.1464 H       1  ZINC000499369364    0.0600
     31 H31        -1.3119    5.9537   51.3501 H       1  ZINC000499369364    0.0800
     32 H32        -2.4863    5.9165   53.5337 H       1  ZINC000499369364    0.0600
     33 H33        -3.0787    4.2743   53.1872 H       1  ZINC000499369364    0.0600
     34 H34        -1.3361    4.5643   53.4039 H       1  ZINC000499369364    0.0500
     35 H35        -3.8875    3.3659   50.6331 H       1  ZINC000499369364    0.0600
     36 H36        -2.7413    2.0098   50.5083 H       1  ZINC000499369364    0.0600
     37 H37        -3.0698    2.7548   52.0912 H       1  ZINC000499369364    0.0700
     38 H38        -2.4106    4.0160   48.7590 H       1  ZINC000499369364    0.4000
     39 H39        -1.1611    6.5564   46.1772 H       1  ZINC000499369364    0.1200
     40 H40        -1.2250    6.8628   47.9459 H       1  ZINC000499369364    0.1300
     41 H41         1.6915    5.5756   45.2827 H       1  ZINC000499369364    0.1100
     42 H42         2.8391    5.4972   46.6606 H       1  ZINC000499369364    0.1200
     43 H43         0.5956    2.3374   48.8774 H       1  ZINC000499369364    0.1300
     44 H44        -0.4667    2.3593   47.4493 H       1  ZINC000499369364    0.1300
     45 H45        -2.2044    1.7236   46.1040 H       1  ZINC000499369364    0.1600
     46 H46        -0.5902    1.7857   44.1479 H       1  ZINC000499369364    0.1200
     47 H47         0.0529    0.1246   44.6261 H       1  ZINC000499369364    0.1200
     48 H48        -2.2656   -0.8595   44.3266 H       1  ZINC000499369364    0.1100
     49 H49        -2.9089    0.8015   43.8484 H       1  ZINC000499369364    0.1200
@<TRIPOS>BOND
     1     1     2    1
     2     1    28    1
     3     1    29    1
     4     1    30    1
     5     2     3    1
     6     2     4    1
     7     2    31    1
     8     3    32    1
     9     3    33    1
    10     3    34    1
    11     4     5    1
    12     4     6    1
    13     4     7    1
    14     6    35    1
    15     6    36    1
    16     6    37    1
    17     7     8   am
    18     7    38    1
    19     8     9    2
    20     8    10    1
    21    10    11    1
    22    10    15    1
    23    10    12    1
    24    12    13    1
    25    12    39    1
    26    12    40    1
    27    13    14    1
    28    14    15    1
    29    14    41    1
    30    14    42    1
    31    15    16   am
    32    16    17    2
    33    16    18    1
    34    18    19    1
    35    18    43    1
    36    18    44    1
    37    19    20    1
    38    20    24    1
    39    20    21    2
    40    21    22    1
    41    22    23    2
    42    23    24    1
    43    24    25    1
    44    25    27    1
    45    25    26    1
    46    25    45    1
    47    26    27    1
    48    26    46    1
    49    26    47    1
    50    27    48    1
    51    27    49    1
@<TRIPOS>SUBSTRUCTURE
     1 ZINC000499369364        1 TEMP              0 ****  ****    0 ROOT


##########                                Name:    ZINC000442864105
##########                DOCK_Rotatable_Bonds:                   7
##########                         Heavy_Atoms:                  30
##########                    Molecular_Weight:              414.39
##########                DOCK_Rotatable_Bonds:                   7
##########                       Formal_Charge:           0.0200001
##########                     HBond_Acceptors:                  10
##########                        HBond_Donors:                   2
##########                         Heavy_Atoms:                  30
##########                          Grid_Score:          -32.621418
##########                     Grid_vdw_energy:          -31.123905
##########                      Grid_es_energy:           -1.497511
##########           Internal_energy_repulsive:           18.321571

@<TRIPOS>MOLECULE
ZINC000442864105
 47 50 1 0 0
SMALL
USER_CHARGES


@<TRIPOS>ATOM
      1 C1          0.0022    2.3182   44.4666 C.3     1  ZINC000442864105    0.0800
      2 N2         -0.8869    1.3800   45.1564 N.pl3   1  ZINC000442864105   -0.4900
      3 C3         -1.4005    0.2344   44.6081 C.2     1  ZINC000442864105    0.0300
      4 C4         -2.1753   -0.3944   45.5053 C.2     1  ZINC000442864105   -0.1900
      5 C5         -2.1574    0.4133   46.7283 C.ar    1  ZINC000442864105   -0.1600
      6 C6         -2.7566    0.2843   47.9828 C.ar    1  ZINC000442864105   -0.0200
      7 C7         -2.5391    1.2326   48.9411 C.ar    1  ZINC000442864105   -0.2100
      8 C8         -1.7219    2.3304   48.6762 C.ar    1  ZINC000442864105    0.2400
      9 N9         -1.5093    3.2924   49.6680 N.pl3   1  ZINC000442864105   -0.7400
     10 C10        -2.6451    3.8349   50.4176 C.3     1  ZINC000442864105    0.1100
     11 C11        -2.5298    3.4324   51.8653 C.2     1  ZINC000442864105    0.5100
     12 O12        -1.8762    2.4583   52.1739 O.2     1  ZINC000442864105   -0.5100
     13 N13        -3.1528    4.1549   52.8173 N.am    1  ZINC000442864105   -0.6600
     14 C14        -3.0458    3.7811   54.1620 C.ar    1  ZINC000442864105    0.1600
     15 C15        -1.7976    3.6803   54.7587 C.ar    1  ZINC000442864105   -0.0700
     16 C16        -1.6944    3.3110   56.0865 C.ar    1  ZINC000442864105   -0.1600
     17 C17        -0.3373    3.2023   56.7327 C.3     1  ZINC000442864105    0.5100
     18 F18         0.5818    2.6994   55.8056 F       1  ZINC000442864105   -0.1700
     19 F19         0.0777    4.4676   57.1615 F       1  ZINC000442864105   -0.1700
     20 F20        -0.4117    2.3389   57.8310 F       1  ZINC000442864105   -0.1700
     21 C21        -2.8327    3.0415   56.8240 C.ar    1  ZINC000442864105   -0.0600
     22 C22        -4.0804    3.1390   56.2374 C.ar    1  ZINC000442864105   -0.1100
     23 C23        -4.1939    3.5144   54.9073 C.ar    1  ZINC000442864105    0.1500
     24 N24        -5.4590    3.6139   54.3101 N.pl3   1  ZINC000442864105   -0.3300
     25 C25        -6.6385    3.2540   54.8519 C.2     1  ZINC000442864105    0.2800
     26 N26        -7.5796    3.5055   53.9780 N.2     1  ZINC000442864105   -0.5300
     27 C27        -7.0441    4.0232   52.8731 C.2     1  ZINC000442864105    0.2300
     28 N28        -5.7491    4.1144   53.0302 N.2     1  ZINC000442864105   -0.3400
     29 C29        -1.1188    2.4750   47.4387 C.ar    1  ZINC000442864105   -0.2100
     30 C30        -1.3263    1.5151   46.4544 C.ar    1  ZINC000442864105    0.1500
     31 H31         1.0386    2.0212   44.6268 H       1  ZINC000442864105    0.0700
     32 H32        -0.2175    2.3089   43.3990 H       1  ZINC000442864105    0.0800
     33 H33        -0.1531    3.3225   44.8608 H       1  ZINC000442864105    0.0800
     34 H34        -1.2100   -0.1115   43.6029 H       1  ZINC000442864105    0.1700
     35 H35        -2.7109   -1.3200   45.3545 H       1  ZINC000442864105    0.1400
     36 H36        -3.3913   -0.5635   48.1948 H       1  ZINC000442864105    0.1200
     37 H37        -3.0037    1.1315   49.9108 H       1  ZINC000442864105    0.1200
     38 H38        -0.6098    3.6005   49.8600 H       1  ZINC000442864105    0.4100
     39 H39        -2.6445    4.9222   50.3417 H       1  ZINC000442864105    0.1000
     40 H40        -3.5741    3.4423   50.0043 H       1  ZINC000442864105    0.1000
     41 H41        -3.6754    4.9340   52.5707 H       1  ZINC000442864105    0.4300
     42 H42        -0.9066    3.8901   54.1857 H       1  ZINC000442864105    0.1700
     43 H43        -2.7465    2.7537   57.8613 H       1  ZINC000442864105    0.1500
     44 H44        -4.9673    2.9274   56.8162 H       1  ZINC000442864105    0.1500
     45 H45        -6.7823    2.8311   55.8352 H       1  ZINC000442864105    0.2300
     46 H46        -7.5916    4.3232   51.9919 H       1  ZINC000442864105    0.2300
     47 H47        -0.4867    3.3278   47.2397 H       1  ZINC000442864105    0.1200
@<TRIPOS>BOND
     1     1     2    1
     2     1    31    1
     3     1    32    1
     4     1    33    1
     5     2    30    1
     6     2     3    1
     7     3     4    2
     8     3    34    1
     9     4     5    1
    10     4    35    1
    11     5    30   ar
    12     5     6   ar
    13     6     7   ar
    14     6    36    1
    15     7     8   ar
    16     7    37    1
    17     8     9    1
    18     8    29   ar
    19     9    10    1
    20     9    38    1
    21    10    11    1
    22    10    39    1
    23    10    40    1
    24    11    12    2
    25    11    13   am
    26    13    14    1
    27    13    41    1
    28    14    23   ar
    29    14    15   ar
    30    15    16   ar
    31    15    42    1
    32    16    17    1
    33    16    21   ar
    34    17    18    1
    35    17    19    1
    36    17    20    1
    37    21    22   ar
    38    21    43    1
    39    22    23   ar
    40    22    44    1
    41    23    24    1
    42    24    28    1
    43    24    25    1
    44    25    26    2
    45    25    45    1
    46    26    27    1
    47    27    28    2
    48    27    46    1
    49    29    30   ar
    50    29    47    1
@<TRIPOS>SUBSTRUCTURE
     1 ZINC000442864105        1 TEMP              0 ****  ****    0 ROOT


##########                                Name:    ZINC000489403631
##########                DOCK_Rotatable_Bonds:                   7
##########                         Heavy_Atoms:                  28
##########                    Molecular_Weight:             381.391
##########                DOCK_Rotatable_Bonds:                   7
##########                       Formal_Charge:          -0.0300003
##########                     HBond_Acceptors:                   9
##########                        HBond_Donors:                   1
##########                         Heavy_Atoms:                  28
##########                          Grid_Score:          -32.618969
##########                     Grid_vdw_energy:          -30.799768
##########                      Grid_es_energy:           -1.819201
##########           Internal_energy_repulsive:           10.803873

@<TRIPOS>MOLECULE
ZINC000489403631
 47 49 1 0 0
SMALL
USER_CHARGES


@<TRIPOS>ATOM
      1 C1          0.7779    3.7309   47.9512 C.3     1  ZINC000489403631   -0.1100
      2 C2         -0.4561    3.4290   48.7616 C.ar    1  ZINC000489403631   -0.0800
      3 C3         -0.6766    4.0877   49.9547 C.ar    1  ZINC000489403631   -0.0900
      4 C4         -1.8140    3.8094   50.7014 C.ar    1  ZINC000489403631    0.1200
      5 N5         -2.0383    4.4778   51.9119 N.am    1  ZINC000489403631   -0.6600
      6 C6         -1.2240    4.2594   52.9634 C.2     1  ZINC000489403631    0.5100
      7 O7         -0.2969    3.4839   52.8617 O.2     1  ZINC000489403631   -0.4600
      8 C8         -1.4655    4.9785   54.2656 C.3     1  ZINC000489403631    0.1700
      9 C9         -0.1325    5.1893   54.9865 C.3     1  ZINC000489403631   -0.1700
     10 C10        -2.1143    6.3356   53.9861 C.3     1  ZINC000489403631   -0.1700
     11 N11        -2.3552    4.1763   55.1088 N.pl3   1  ZINC000489403631   -0.3400
     12 C12        -3.5373    3.6439   54.7344 C.2     1  ZINC000489403631    0.1500
     13 C13        -4.0452    2.9784   55.7975 C.2     1  ZINC000489403631   -0.1900
     14 N14        -5.3288    2.2421   55.8317 N.pl3   1  ZINC000489403631    0.0700
     15 O15        -6.0730    2.2704   54.8680 O.2     1  ZINC000489403631   -0.1700
     16 O16        -5.6407    1.6079   56.8238 O.2     1  ZINC000489403631   -0.1600
     17 C17        -3.1425    3.1085   56.8580 C.2     1  ZINC000489403631    0.1000
     18 N18        -2.1262    3.8213   56.4445 N.2     1  ZINC000489403631   -0.2200
     19 C19        -2.7287    2.8687   50.2477 C.ar    1  ZINC000489403631   -0.1100
     20 C20        -2.5071    2.2104   49.0540 C.ar    1  ZINC000489403631   -0.1700
     21 C21        -1.3737    2.4930   48.3058 C.ar    1  ZINC000489403631    0.1000
     22 O22        -1.1560    1.8446   47.1307 O.3     1  ZINC000489403631   -0.2500
     23 C23        -1.3601    0.5033   47.0959 C.ar    1  ZINC000489403631    0.1400
     24 C24        -2.1755   -0.0701   46.1228 C.ar    1  ZINC000489403631   -0.2000
     25 C25        -2.3578   -1.4376   46.1213 C.ar    1  ZINC000489403631    0.1200
     26 N26        -1.7715   -2.1991   47.0257 N.ar    1  ZINC000489403631   -0.4900
     27 C27        -0.9922   -1.6934   47.9630 C.ar    1  ZINC000489403631    0.1200
     28 C28        -0.7551   -0.3358   48.0287 C.ar    1  ZINC000489403631   -0.1800
     29 H29         0.5669    4.5448   47.2575 H       1  ZINC000489403631    0.0700
     30 H30         1.5884    4.0234   48.6188 H       1  ZINC000489403631    0.0700
     31 H31         1.0710    2.8430   47.3910 H       1  ZINC000489403631    0.0700
     32 H32         0.0355    4.8191   50.3074 H       1  ZINC000489403631    0.1500
     33 H33        -2.7798    5.0980   51.9933 H       1  ZINC000489403631    0.4100
     34 H34         0.5295    5.7862   54.3591 H       1  ZINC000489403631    0.1000
     35 H35        -0.3071    5.7095   55.9283 H       1  ZINC000489403631    0.0900
     36 H36         0.3298    4.2225   55.1856 H       1  ZINC000489403631    0.0800
     37 H37        -3.0639    6.1855   53.4725 H       1  ZINC000489403631    0.0800
     38 H38        -2.2889    6.8557   54.9279 H       1  ZINC000489403631    0.0900
     39 H39        -1.4523    6.9325   53.3587 H       1  ZINC000489403631    0.0900
     40 H40        -3.9960    3.7334   53.7608 H       1  ZINC000489403631    0.2000
     41 H41        -3.2615    2.6889   57.8459 H       1  ZINC000489403631    0.2100
     42 H42        -3.6131    2.6515   50.8281 H       1  ZINC000489403631    0.1300
     43 H43        -3.2186    1.4786   48.7009 H       1  ZINC000489403631    0.1300
     44 H44        -2.6585    0.5474   45.3801 H       1  ZINC000489403631    0.1400
     45 H45        -2.9886   -1.8907   45.3707 H       1  ZINC000489403631    0.1600
     46 H46        -0.5311   -2.3509   48.6852 H       1  ZINC000489403631    0.1700
     47 H47        -0.1161    0.0717   48.7981 H       1  ZINC000489403631    0.1500
@<TRIPOS>BOND
     1     1     2    1
     2     1    29    1
     3     1    30    1
     4     1    31    1
     5     2    21   ar
     6     2     3   ar
     7     3     4   ar
     8     3    32    1
     9     4     5    1
    10     4    19   ar
    11     5     6   am
    12     5    33    1
    13     6     7    2
    14     6     8    1
    15     8     9    1
    16     8    10    1
    17     8    11    1
    18     9    34    1
    19     9    35    1
    20     9    36    1
    21    10    37    1
    22    10    38    1
    23    10    39    1
    24    11    18    1
    25    11    12    1
    26    12    13    2
    27    12    40    1
    28    13    14    1
    29    13    17    1
    30    14    15    2
    31    14    16    2
    32    17    18    2
    33    17    41    1
    34    19    20   ar
    35    19    42    1
    36    20    21   ar
    37    20    43    1
    38    21    22    1
    39    22    23    1
    40    23    28   ar
    41    23    24   ar
    42    24    25   ar
    43    24    44    1
    44    25    26   ar
    45    25    45    1
    46    26    27   ar
    47    27    28   ar
    48    27    46    1
    49    28    47    1
@<TRIPOS>SUBSTRUCTURE
     1 ZINC000489403631        1 TEMP              0 ****  ****    0 ROOT


##########                                Name:    ZINC000015179664
##########                DOCK_Rotatable_Bonds:                   8
##########                         Heavy_Atoms:                  25
##########                    Molecular_Weight:             361.422
##########                DOCK_Rotatable_Bonds:                   8
##########                       Formal_Charge:        -2.23517e-07
##########                     HBond_Acceptors:                   8
##########                        HBond_Donors:                   1
##########                         Heavy_Atoms:                  25
##########                          Grid_Score:          -32.618591
##########                     Grid_vdw_energy:          -31.578672
##########                      Grid_es_energy:           -1.039919
##########           Internal_energy_repulsive:           22.198298

@<TRIPOS>MOLECULE
ZINC000015179664
 44 45 1 0 0
SMALL
USER_CHARGES


@<TRIPOS>ATOM
      1 C1          1.2409    3.1434   47.3567 C.3     1  ZINC000015179664   -0.1600
      2 C2          0.2056    2.6293   48.3592 C.3     1  ZINC000015179664    0.1800
      3 H3          0.7121    2.2885   49.2621 H       1  ZINC000015179664    0.1200
      4 C4         -0.5586    1.4827   47.7487 C.ar    1  ZINC000015179664   -0.1000
      5 C5         -1.5037    1.7255   46.7700 C.ar    1  ZINC000015179664   -0.0700
      6 C6         -2.2047    0.6735   46.2099 C.ar    1  ZINC000015179664   -0.1200
      7 C7         -1.9600   -0.6208   46.6286 C.ar    1  ZINC000015179664   -0.0500
      8 C8         -1.0138   -0.8637   47.6068 C.ar    1  ZINC000015179664   -0.0400
      9 N9         -0.7520   -2.2497   48.0555 N.pl3   1  ZINC000015179664    0.0300
     10 O10        -1.3701   -3.1763   47.5627 O.2     1  ZINC000015179664   -0.1600
     11 O11         0.0816   -2.4636   48.9174 O.2     1  ZINC000015179664   -0.1500
     12 C12        -0.3099    0.1875   48.1637 C.ar    1  ZINC000015179664   -0.0400
     13 N13        -0.7237    3.7097   48.6987 N.am    1  ZINC000015179664   -0.6100
     14 C14        -0.7005    4.9619   47.9386 C.3     1  ZINC000015179664    0.0600
     15 C15        -1.6001    3.5516   49.7103 C.2     1  ZINC000015179664    0.5200
     16 O16        -1.6204    2.5144   50.3386 O.2     1  ZINC000015179664   -0.5200
     17 C17        -2.5549    4.6636   50.0608 C.3     1  ZINC000015179664   -0.1500
     18 C18        -3.7749    4.0815   50.7775 C.3     1  ZINC000015179664    0.1300
     19 N19        -3.4664    3.9001   52.1980 N.am    1  ZINC000015179664   -0.7300
     20 C20        -4.4371    4.0429   53.1220 C.2     1  ZINC000015179664    0.5800
     21 O21        -5.5690    4.3239   52.7766 O.2     1  ZINC000015179664   -0.5300
     22 C22        -4.1274    3.8589   54.5492 C.2     1  ZINC000015179664   -0.1500
     23 C23        -5.0585    3.9505   55.5364 C.2     1  ZINC000015179664   -0.2200
     24 S24        -4.3507    3.6812   57.0634 S.3     1  ZINC000015179664    0.1900
     25 C25        -2.7586    3.4377   56.3662 C.2     1  ZINC000015179664   -0.2300
     26 C26        -2.8048    3.5567   55.0446 C.2     1  ZINC000015179664   -0.0900
     27 H27         1.9324    2.3395   47.1040 H       1  ZINC000015179664    0.0800
     28 H28         0.7343    3.4841   46.4537 H       1  ZINC000015179664    0.0600
     29 H29         1.7936    3.9726   47.7982 H       1  ZINC000015179664    0.0700
     30 H30        -1.6950    2.7367   46.4429 H       1  ZINC000015179664    0.1500
     31 H31        -2.9439    0.8632   45.4457 H       1  ZINC000015179664    0.1500
     32 H32        -2.5081   -1.4423   46.1915 H       1  ZINC000015179664    0.1600
     33 H33         0.4292   -0.0021   48.9279 H       1  ZINC000015179664    0.1600
     34 H34        -1.3517    4.8713   47.0693 H       1  ZINC000015179664    0.0600
     35 H35        -1.0505    5.7775   48.5714 H       1  ZINC000015179664    0.0800
     36 H36         0.3180    5.1684   47.6098 H       1  ZINC000015179664    0.0800
     37 H37        -2.0558    5.3782   50.7153 H       1  ZINC000015179664    0.1000
     38 H38        -2.8753    5.1681   49.1494 H       1  ZINC000015179664    0.1000
     39 H39        -4.6178    4.7646   50.6730 H       1  ZINC000015179664    0.0800
     40 H40        -4.0308    3.1185   50.3354 H       1  ZINC000015179664    0.0800
     41 H41        -2.5635    3.6771   52.4736 H       1  ZINC000015179664    0.4000
     42 H42        -6.1046    4.1648   55.3747 H       1  ZINC000015179664    0.1700
     43 H43        -1.8660    3.2178   56.9330 H       1  ZINC000015179664    0.1700
     44 H44        -1.9408    3.4463   54.4061 H       1  ZINC000015179664    0.1600
@<TRIPOS>BOND
     1     1     2    1
     2     1    27    1
     3     1    28    1
     4     1    29    1
     5     2     3    1
     6     2     4    1
     7     2    13    1
     8     4    12   ar
     9     4     5   ar
    10     5     6   ar
    11     5    30    1
    12     6     7   ar
    13     6    31    1
    14     7     8   ar
    15     7    32    1
    16     8     9    1
    17     8    12   ar
    18     9    10    2
    19     9    11    2
    20    12    33    1
    21    13    14    1
    22    13    15   am
    23    14    34    1
    24    14    35    1
    25    14    36    1
    26    15    16    2
    27    15    17    1
    28    17    18    1
    29    17    37    1
    30    17    38    1
    31    18    19    1
    32    18    39    1
    33    18    40    1
    34    19    20   am
    35    19    41    1
    36    20    21    2
    37    20    22    1
    38    22    26    1
    39    22    23    2
    40    23    24    1
    41    23    42    1
    42    24    25    1
    43    25    26    2
    44    25    43    1
    45    26    44    1
@<TRIPOS>SUBSTRUCTURE
     1 ZINC000015179664        1 TEMP              0 ****  ****    0 ROOT


##########                                Name:    ZINC001120957943
##########                DOCK_Rotatable_Bonds:                   4
##########                         Heavy_Atoms:                  27
##########                    Molecular_Weight:             396.802
##########                DOCK_Rotatable_Bonds:                   4
##########                       Formal_Charge:          -0.0199996
##########                     HBond_Acceptors:                  10
##########                        HBond_Donors:                   0
##########                         Heavy_Atoms:                  27
##########                          Grid_Score:          -32.573723
##########                     Grid_vdw_energy:          -31.932203
##########                      Grid_es_energy:           -0.641520
##########           Internal_energy_repulsive:            5.477315

@<TRIPOS>MOLECULE
ZINC001120957943
 43 46 1 0 0
SMALL
USER_CHARGES


@<TRIPOS>ATOM
      1 C1        -15.8174   -2.8839   57.7327 C.3     1  ZINC001120957943    0.0900
      2 N2        -14.3894   -3.1512   57.9221 N.pl3   1  ZINC001120957943   -0.6000
      3 C3        -13.8921   -3.5818   59.2311 C.3     1  ZINC001120957943    0.2200
      4 C4        -13.8399   -2.3985   60.1627 C.2     1  ZINC001120957943    0.1600
      5 N5        -14.8599   -1.8212   60.7444 N.2     1  ZINC001120957943   -0.2500
      6 N6        -14.4481   -0.8400   61.4719 N.2     1  ZINC001120957943   -0.2800
      7 C7        -13.1558   -0.7494   61.3856 C.2     1  ZINC001120957943    0.1700
      8 C8        -12.2369    0.2415   62.0547 C.3     1  ZINC001120957943   -0.0300
      9 C9        -10.8804    0.1939   61.3385 C.3     1  ZINC001120957943   -0.1300
     10 C10       -10.4336   -1.2640   61.1969 C.3     1  ZINC001120957943   -0.1500
     11 H11       -10.5006   -1.7599   62.1653 H       1  ZINC001120957943    0.1300
     12 C12        -8.9869   -1.3076   60.7010 C.3     1  ZINC001120957943    0.4600
     13 F13        -8.9115   -0.7261   59.4309 F       1  ZINC001120957943   -0.1700
     14 F14        -8.1685   -0.5993   61.5876 F       1  ZINC001120957943   -0.1800
     15 F15        -8.5577   -2.6373   60.6313 F       1  ZINC001120957943   -0.1800
     16 C16       -11.3396   -1.9837   60.1910 C.3     1  ZINC001120957943    0.1100
     17 N17       -12.7340   -1.7392   60.5583 N.pl3   1  ZINC001120957943   -0.4700
     18 C18       -13.5084   -2.9964   56.8620 C.ar    1  ZINC001120957943    0.3700
     19 C19       -12.7261   -4.0857   56.4403 C.ar    1  ZINC001120957943    0.0500
     20 N20       -11.8882   -3.9583   55.4398 N.ar    1  ZINC001120957943   -0.3900
     21 C21       -11.7740   -2.7813   54.8117 C.ar    1  ZINC001120957943    0.0400
     22 C22       -10.8840   -2.6190   53.7367 C.ar    1  ZINC001120957943   -0.0600
     23 C23       -10.7883   -1.4105   53.1154 C.ar    1  ZINC001120957943   -0.0400
     24 Cl24       -9.6870   -1.2156   51.7877 Cl      1  ZINC001120957943   -0.0600
     25 C25       -11.5629   -0.3278   53.5308 C.ar    1  ZINC001120957943   -0.0800
     26 C26       -12.4351   -0.4492   54.5683 C.ar    1  ZINC001120957943   -0.0800
     27 C27       -12.5606   -1.6808   55.2335 C.ar    1  ZINC001120957943    0.1400
     28 N28       -13.4148   -1.8293   56.2535 N.ar    1  ZINC001120957943   -0.4700
     29 H29       -16.0232   -1.8362   57.9523 H       1  ZINC001120957943    0.0700
     30 H30       -16.0937   -3.0998   56.7008 H       1  ZINC001120957943    0.0800
     31 H31       -16.3976   -3.5167   58.4043 H       1  ZINC001120957943    0.0700
     32 H32       -14.5597   -4.3390   59.6422 H       1  ZINC001120957943    0.1200
     33 H33       -12.8920   -4.0010   59.1197 H       1  ZINC001120957943    0.1000
     34 H34       -12.6583    1.2438   61.9784 H       1  ZINC001120957943    0.1100
     35 H35       -12.1088   -0.0256   63.1036 H       1  ZINC001120957943    0.1000
     36 H36       -10.9749    0.6432   60.3500 H       1  ZINC001120957943    0.0900
     37 H37       -10.1422    0.7457   61.9204 H       1  ZINC001120957943    0.1000
     38 H38       -11.1493   -1.6007   59.1884 H       1  ZINC001120957943    0.1000
     39 H39       -11.1392   -3.0548   60.2196 H       1  ZINC001120957943    0.1100
     40 H40       -12.8158   -5.0361   56.9453 H       1  ZINC001120957943    0.1700
     41 H41       -10.2780   -3.4490   53.4044 H       1  ZINC001120957943    0.1500
     42 H42       -11.4690    0.6204   53.0222 H       1  ZINC001120957943    0.1400
     43 H43       -13.0286    0.3979   54.8796 H       1  ZINC001120957943    0.1500
@<TRIPOS>BOND
     1     1     2    1
     2     1    29    1
     3     1    30    1
     4     1    31    1
     5     2     3    1
     6     2    18    1
     7     3     4    1
     8     3    32    1
     9     3    33    1
    10     4    17    1
    11     4     5    2
    12     5     6    1
    13     6     7    2
    14     7    17    1
    15     7     8    1
    16     8     9    1
    17     8    34    1
    18     8    35    1
    19     9    10    1
    20     9    36    1
    21     9    37    1
    22    10    11    1
    23    10    12    1
    24    10    16    1
    25    12    13    1
    26    12    14    1
    27    12    15    1
    28    16    17    1
    29    16    38    1
    30    16    39    1
    31    18    28   ar
    32    18    19   ar
    33    19    20   ar
    34    19    40    1
    35    20    21   ar
    36    21    27   ar
    37    21    22   ar
    38    22    23   ar
    39    22    41    1
    40    23    24    1
    41    23    25   ar
    42    25    26   ar
    43    25    42    1
    44    26    27   ar
    45    26    43    1
    46    27    28   ar
@<TRIPOS>SUBSTRUCTURE
     1 ZINC001120957943        1 TEMP              0 ****  ****    0 ROOT


##########                                Name:    ZINC000182378855
##########                DOCK_Rotatable_Bonds:                   8
##########                         Heavy_Atoms:                  27
##########                    Molecular_Weight:              394.83
##########                DOCK_Rotatable_Bonds:                   8
##########                       Formal_Charge:          -0.0200001
##########                     HBond_Acceptors:                   8
##########                        HBond_Donors:                   1
##########                         Heavy_Atoms:                  27
##########                          Grid_Score:          -32.567932
##########                     Grid_vdw_energy:          -29.274933
##########                      Grid_es_energy:           -3.292998
##########           Internal_energy_repulsive:           11.287736

@<TRIPOS>MOLECULE
ZINC000182378855
 47 49 1 0 0
SMALL
USER_CHARGES


@<TRIPOS>ATOM
      1 C1          1.5759    3.5594   53.9261 C.3     1  ZINC000182378855    0.0300
      2 O2          0.3479    3.5678   53.1955 O.3     1  ZINC000182378855   -0.3900
      3 C3         -0.8192    3.5549   54.0200 C.3     1  ZINC000182378855    0.0600
      4 C4         -2.0681    3.5546   53.1363 C.3     1  ZINC000182378855    0.0700
      5 O5         -1.7897    2.8610   51.9183 O.3     1  ZINC000182378855   -0.2900
      6 C6         -1.6947    3.6098   50.7907 C.ar    1  ZINC000182378855    0.3300
      7 C7         -0.6690    3.3638   49.8880 C.ar    1  ZINC000182378855   -0.1300
      8 C8         -0.5845    4.1428   48.7324 C.ar    1  ZINC000182378855   -0.0600
      9 C9          0.4921    3.9171   47.7398 C.2     1  ZINC000182378855    0.5600
     10 O10         1.6235    3.6795   48.1141 O.2     1  ZINC000182378855   -0.5200
     11 N11         0.2166    3.9752   46.4219 N.am    1  ZINC000182378855   -0.7100
     12 C12         1.2808    3.7502   45.4404 C.3     1  ZINC000182378855    0.1200
     13 H13         2.2594    3.8620   45.9072 H       1  ZINC000182378855    0.1100
     14 C14         1.1343    4.7245   44.2501 C.3     1  ZINC000182378855   -0.1700
     15 C15         0.9222    3.7991   43.0315 C.3     1  ZINC000182378855    0.0400
     16 O16         0.3913    2.5755   43.5854 O.3     1  ZINC000182378855   -0.3600
     17 C17         1.1397    2.3515   44.8001 C.3     1  ZINC000182378855    0.1100
     18 H18         2.1220    1.9388   44.5700 H       1  ZINC000182378855    0.1000
     19 C19         0.3834    1.4275   45.7195 C.ar    1  ZINC000182378855   -0.0500
     20 C20         1.0656    0.6783   46.6596 C.ar    1  ZINC000182378855   -0.1100
     21 C21         0.3728   -0.1658   47.5078 C.ar    1  ZINC000182378855   -0.0800
     22 C22        -1.0025   -0.2696   47.4088 C.ar    1  ZINC000182378855   -0.0700
     23 Cl23       -1.8719   -1.3341   48.4692 Cl      1  ZINC000182378855   -0.0400
     24 C24        -1.6864    0.4772   46.4625 C.ar    1  ZINC000182378855    0.1200
     25 F25        -3.0301    0.3774   46.3646 F       1  ZINC000182378855   -0.1200
     26 C26        -0.9915    1.3257   45.6182 C.ar    1  ZINC000182378855   -0.1300
     27 C27        -1.5442    5.1421   48.5366 C.ar    1  ZINC000182378855   -0.1900
     28 C28        -2.5315    5.3205   49.4844 C.ar    1  ZINC000182378855    0.1400
     29 N29        -2.5831    4.5617   50.5618 N.ar    1  ZINC000182378855   -0.5200
     30 H30         1.6266    2.6610   54.5413 H       1  ZINC000182378855    0.0400
     31 H31         2.4136    3.5701   53.2288 H       1  ZINC000182378855    0.0900
     32 H32         1.6242    4.4408   54.5655 H       1  ZINC000182378855    0.0400
     33 H33        -0.8144    2.6601   54.6426 H       1  ZINC000182378855    0.0600
     34 H34        -0.8244    4.4401   54.6561 H       1  ZINC000182378855    0.0700
     35 H35        -2.8838    3.0561   53.6600 H       1  ZINC000182378855    0.0800
     36 H36        -2.3547    4.5821   52.9118 H       1  ZINC000182378855    0.0800
     37 H37         0.0524    2.5825   50.0767 H       1  ZINC000182378855    0.1600
     38 H38        -0.6863    4.1661   46.1231 H       1  ZINC000182378855    0.4000
     39 H39         0.2701    5.3735   44.3919 H       1  ZINC000182378855    0.0900
     40 H40         2.0414    5.3162   44.1270 H       1  ZINC000182378855    0.0900
     41 H41         0.2079    4.2428   42.3380 H       1  ZINC000182378855    0.1000
     42 H42         1.8707    3.6099   42.5290 H       1  ZINC000182378855    0.0700
     43 H43         2.1402    0.7552   46.7344 H       1  ZINC000182378855    0.1500
     44 H44         0.9065   -0.7473   48.2449 H       1  ZINC000182378855    0.1500
     45 H45        -1.5234    1.9085   44.8807 H       1  ZINC000182378855    0.1500
     46 H46        -1.5130    5.7653   47.6551 H       1  ZINC000182378855    0.1400
     47 H47        -3.2753    6.0900   49.3394 H       1  ZINC000182378855    0.1700
@<TRIPOS>BOND
     1     1     2    1
     2     1    30    1
     3     1    31    1
     4     1    32    1
     5     2     3    1
     6     3     4    1
     7     3    33    1
     8     3    34    1
     9     4     5    1
    10     4    35    1
    11     4    36    1
    12     5     6    1
    13     6    29   ar
    14     6     7   ar
    15     7     8   ar
    16     7    37    1
    17     8     9    1
    18     8    27   ar
    19     9    10    2
    20     9    11   am
    21    11    12    1
    22    11    38    1
    23    12    13    1
    24    12    17    1
    25    12    14    1
    26    14    15    1
    27    14    39    1
    28    14    40    1
    29    15    16    1
    30    15    41    1
    31    15    42    1
    32    16    17    1
    33    17    18    1
    34    17    19    1
    35    19    26   ar
    36    19    20   ar
    37    20    21   ar
    38    20    43    1
    39    21    22   ar
    40    21    44    1
    41    22    23    1
    42    22    24   ar
    43    24    25    1
    44    24    26   ar
    45    26    45    1
    46    27    28   ar
    47    27    46    1
    48    28    29   ar
    49    28    47    1
@<TRIPOS>SUBSTRUCTURE
     1 ZINC000182378855        1 TEMP              0 ****  ****    0 ROOT


##########                                Name:    ZINC001326371752
##########                DOCK_Rotatable_Bonds:                   5
##########                         Heavy_Atoms:                  25
##########                    Molecular_Weight:             360.397
##########                DOCK_Rotatable_Bonds:                   5
##########                       Formal_Charge:           0.0199999
##########                     HBond_Acceptors:                  10
##########                        HBond_Donors:                   0
##########                         Heavy_Atoms:                  25
##########                          Grid_Score:          -32.564915
##########                     Grid_vdw_energy:          -31.126688
##########                      Grid_es_energy:           -1.438226
##########           Internal_energy_repulsive:            9.217174

@<TRIPOS>MOLECULE
ZINC001326371752
 41 44 1 0 0
SMALL
USER_CHARGES


@<TRIPOS>ATOM
      1 C1         -7.2207    0.0870   65.9745 C.3     1  ZINC001326371752    0.0300
      2 O2         -7.7072   -0.2671   64.6784 O.3     1  ZINC001326371752   -0.3800
      3 C3         -7.5466    0.7589   63.6968 C.3     1  ZINC001326371752    0.0500
      4 C4         -8.0813    0.2655   62.3509 C.3     1  ZINC001326371752    0.1200
      5 N5         -9.5107   -0.0318   62.4727 N.pl3   1  ZINC001326371752   -0.2800
      6 N6        -10.2999    0.4036   63.3968 N.2     1  ZINC001326371752   -0.0800
      7 N7        -11.4948   -0.0475   63.2130 N.2     1  ZINC001326371752   -0.2500
      8 C8        -11.4966   -0.8110   62.1263 C.2     1  ZINC001326371752   -0.0400
      9 C9        -10.2317   -0.8015   61.6379 C.2     1  ZINC001326371752    0.0000
     10 C10        -9.7854   -1.5334   60.4009 C.3     1  ZINC001326371752   -0.0600
     11 C11       -10.8263   -2.6085   60.0613 C.3     1  ZINC001326371752    0.1200
     12 N12       -12.1736   -2.0304   60.1727 N.am    1  ZINC001326371752   -0.6100
     13 C13       -12.9688   -1.9204   59.0902 C.2     1  ZINC001326371752    0.6100
     14 O14       -14.0815   -1.4396   59.1989 O.2     1  ZINC001326371752   -0.5100
     15 C15       -12.4931   -2.3805   57.7804 C.2     1  ZINC001326371752   -0.3400
     16 C16       -12.7105   -3.6997   57.3663 C.2     1  ZINC001326371752    0.2400
     17 N17       -12.2689   -4.0787   56.1821 N.2     1  ZINC001326371752   -0.5100
     18 C18       -11.6254   -3.2463   55.3743 C.2     1  ZINC001326371752    0.2900
     19 S19       -10.9613   -3.4969   53.8050 S.3     1  ZINC001326371752    0.2500
     20 C20       -10.3597   -1.8407   53.6312 C.2     1  ZINC001326371752   -0.2100
     21 C21       -10.6969   -1.2247   54.7516 C.2     1  ZINC001326371752    0.0500
     22 N22       -11.3741   -1.9514   55.7008 N.am    1  ZINC001326371752   -0.4600
     23 C23       -11.8125   -1.4990   56.9123 C.2     1  ZINC001326371752    0.5500
     24 O24       -11.6138   -0.3432   57.2440 O.2     1  ZINC001326371752   -0.5000
     25 C25       -12.6357   -1.5701   61.4946 C.3     1  ZINC001326371752    0.2000
     26 H26        -7.3792   -0.7440   66.6616 H       1  ZINC001326371752    0.0900
     27 H27        -6.1555    0.3106   65.9141 H       1  ZINC001326371752    0.0500
     28 H28        -7.7561    0.9648   66.3362 H       1  ZINC001326371752    0.0500
     29 H29        -8.1003    1.6461   64.0046 H       1  ZINC001326371752    0.0600
     30 H30        -6.4895    1.0062   63.5992 H       1  ZINC001326371752    0.0600
     31 H31        -7.9338    1.0378   61.5962 H       1  ZINC001326371752    0.1200
     32 H32        -7.5463   -0.6374   62.0564 H       1  ZINC001326371752    0.1200
     33 H33        -9.7010   -0.8315   59.5714 H       1  ZINC001326371752    0.0900
     34 H34        -8.8196   -2.0046   60.5835 H       1  ZINC001326371752    0.1000
     35 H35       -10.6651   -2.9626   59.0431 H       1  ZINC001326371752    0.1100
     36 H36       -10.7291   -3.4420   60.7570 H       1  ZINC001326371752    0.0800
     37 H37       -13.2315   -4.3965   58.0061 H       1  ZINC001326371752    0.1900
     38 H38        -9.8291   -1.4224   52.7886 H       1  ZINC001326371752    0.2200
     39 H39       -10.4486   -0.1864   54.9148 H       1  ZINC001326371752    0.2000
     40 H40       -12.8941   -2.4270   62.1166 H       1  ZINC001326371752    0.1000
     41 H41       -13.5024   -0.9193   61.3789 H       1  ZINC001326371752    0.1000
@<TRIPOS>BOND
     1     1     2    1
     2     1    26    1
     3     1    27    1
     4     1    28    1
     5     2     3    1
     6     3     4    1
     7     3    29    1
     8     3    30    1
     9     4     5    1
    10     4    31    1
    11     4    32    1
    12     5     9    1
    13     5     6    1
    14     6     7    2
    15     7     8    1
    16     8    25    1
    17     8     9    2
    18     9    10    1
    19    10    11    1
    20    10    33    1
    21    10    34    1
    22    11    12    1
    23    11    35    1
    24    11    36    1
    25    12    13   am
    26    12    25    1
    27    13    14    2
    28    13    15    1
    29    15    23    1
    30    15    16    2
    31    16    17    1
    32    16    37    1
    33    17    18    2
    34    18    22    1
    35    18    19    1
    36    19    20    1
    37    20    21    2
    38    20    38    1
    39    21    22    1
    40    21    39    1
    41    22    23   am
    42    23    24    2
    43    25    40    1
    44    25    41    1
@<TRIPOS>SUBSTRUCTURE
     1 ZINC001326371752        1 TEMP              0 ****  ****    0 ROOT


##########                                Name:    ZINC001340305486
##########                DOCK_Rotatable_Bonds:                   8
##########                         Heavy_Atoms:                  27
##########                    Molecular_Weight:             378.431
##########                DOCK_Rotatable_Bonds:                   8
##########                       Formal_Charge:          0.00999955
##########                     HBond_Acceptors:                  10
##########                        HBond_Donors:                   2
##########                         Heavy_Atoms:                  27
##########                          Grid_Score:          -32.558731
##########                     Grid_vdw_energy:          -32.841656
##########                      Grid_es_energy:            0.282926
##########           Internal_energy_repulsive:           11.274194

@<TRIPOS>MOLECULE
ZINC001340305486
 53 55 1 0 0
SMALL
USER_CHARGES


@<TRIPOS>ATOM
      1 C1         -8.0066   -0.1502   63.1399 C.3     1  ZINC001340305486    0.0900
      2 N2         -9.3880   -0.5055   62.8058 N.am    1  ZINC001340305486   -0.7300
      3 C3         -9.6379   -1.3653   61.7983 C.2     1  ZINC001340305486    0.5200
      4 O4         -8.7191   -1.8436   61.1674 O.2     1  ZINC001340305486   -0.5100
      5 C5        -11.0588   -1.7322   61.4558 C.3     1  ZINC001340305486    0.0600
      6 H6        -11.0961   -2.7681   61.1189 H       1  ZINC001340305486    0.0900
      7 C7        -11.5706   -0.8126   60.3413 C.3     1  ZINC001340305486    0.0900
      8 N8        -13.0088   -1.0636   60.1563 N.am    1  ZINC001340305486   -0.5800
      9 C9        -13.5193   -1.3040   58.9323 C.2     1  ZINC001340305486    0.5100
     10 O10       -14.7082   -1.5081   58.8002 O.2     1  ZINC001340305486   -0.5200
     11 C11       -12.6213   -1.3190   57.7378 C.2     1  ZINC001340305486    0.5200
     12 O12       -12.0737   -0.2976   57.3775 O.2     1  ZINC001340305486   -0.5000
     13 N13       -12.4196   -2.4667   57.0607 N.am    1  ZINC001340305486   -0.6900
     14 C14       -11.5407   -2.4809   55.8887 C.3     1  ZINC001340305486    0.1200
     15 C15       -12.2887   -1.9079   54.6833 C.3     1  ZINC001340305486   -0.0400
     16 C16       -11.3008   -1.5493   53.6032 C.2     1  ZINC001340305486    0.1700
     17 N17       -10.7750   -2.3669   52.7298 N.2     1  ZINC001340305486   -0.2800
     18 N18        -9.9778   -1.7189   51.9538 N.2     1  ZINC001340305486   -0.2900
     19 C19        -9.9642   -0.4619   52.2947 C.2     1  ZINC001340305486    0.1900
     20 C20        -9.1905    0.6514   51.6373 C.3     1  ZINC001340305486   -0.0400
     21 C21        -8.5010    1.4886   52.7188 C.3     1  ZINC001340305486   -0.1200
     22 C22        -9.4441    2.5914   53.1902 C.3     1  ZINC001340305486   -0.1300
     23 C23       -10.8938    2.1109   53.1466 C.3     1  ZINC001340305486   -0.1400
     24 C24       -11.0706    0.9151   54.0866 C.3     1  ZINC001340305486    0.1000
     25 N25       -10.7967   -0.3208   53.3525 N.pl3   1  ZINC001340305486   -0.4600
     26 C26       -13.8731   -1.0438   61.3470 C.3     1  ZINC001340305486    0.0200
     27 C27       -13.2490   -1.9521   62.4126 C.3     1  ZINC001340305486    0.0500
     28 O28       -11.8843   -1.5762   62.6124 O.3     1  ZINC001340305486   -0.3500
     29 H29        -7.4574   -1.0495   63.4188 H       1  ZINC001340305486    0.0600
     30 H30        -7.5310    0.3123   62.2750 H       1  ZINC001340305486    0.0600
     31 H31        -8.0035    0.5509   63.9745 H       1  ZINC001340305486    0.0800
     32 H32       -10.1228   -0.1221   63.3096 H       1  ZINC001340305486    0.4000
     33 H33       -11.4129    0.2285   60.6230 H       1  ZINC001340305486    0.0900
     34 H34       -11.0383   -1.0274   59.4147 H       1  ZINC001340305486    0.1100
     35 H35       -12.8564   -3.2832   57.3494 H       1  ZINC001340305486    0.4200
     36 H36       -10.6572   -1.8749   56.0897 H       1  ZINC001340305486    0.0900
     37 H37       -11.2373   -3.5057   55.6744 H       1  ZINC001340305486    0.0800
     38 H38       -12.9888   -2.6517   54.3030 H       1  ZINC001340305486    0.0900
     39 H39       -12.8360   -1.0151   54.9861 H       1  ZINC001340305486    0.1100
     40 H40        -8.4397    0.2288   50.9696 H       1  ZINC001340305486    0.1000
     41 H41        -9.8728    1.2824   51.0675 H       1  ZINC001340305486    0.0900
     42 H42        -8.2404    0.8488   53.5619 H       1  ZINC001340305486    0.0600
     43 H43        -7.5953    1.9359   52.3093 H       1  ZINC001340305486    0.0800
     44 H44        -9.1883    2.8709   54.2123 H       1  ZINC001340305486    0.0700
     45 H45        -9.3336    3.4607   52.5419 H       1  ZINC001340305486    0.0800
     46 H46       -11.5536    2.9197   53.4609 H       1  ZINC001340305486    0.0900
     47 H47       -11.1466    1.8128   52.1291 H       1  ZINC001340305486    0.0800
     48 H48       -10.3791    1.0057   54.9242 H       1  ZINC001340305486    0.0900
     49 H49       -12.0944    0.8945   54.4603 H       1  ZINC001340305486    0.1000
     50 H50       -13.9471   -0.0259   61.7300 H       1  ZINC001340305486    0.0800
     51 H51       -14.8654   -1.4116   61.0864 H       1  ZINC001340305486    0.1700
     52 H52       -13.7971   -1.8449   63.3487 H       1  ZINC001340305486    0.1200
     53 H53       -13.2952   -2.9890   62.0794 H       1  ZINC001340305486    0.0600
@<TRIPOS>BOND
     1     1     2    1
     2     1    29    1
     3     1    30    1
     4     1    31    1
     5     2     3   am
     6     2    32    1
     7     3     4    2
     8     3     5    1
     9     5     6    1
    10     5    28    1
    11     5     7    1
    12     7     8    1
    13     7    33    1
    14     7    34    1
    15     8     9   am
    16     8    26    1
    17     9    10    2
    18     9    11    1
    19    11    12    2
    20    11    13   am
    21    13    14    1
    22    13    35    1
    23    14    15    1
    24    14    36    1
    25    14    37    1
    26    15    16    1
    27    15    38    1
    28    15    39    1
    29    16    25    1
    30    16    17    2
    31    17    18    1
    32    18    19    2
    33    19    25    1
    34    19    20    1
    35    20    21    1
    36    20    40    1
    37    20    41    1
    38    21    22    1
    39    21    42    1
    40    21    43    1
    41    22    23    1
    42    22    44    1
    43    22    45    1
    44    23    24    1
    45    23    46    1
    46    23    47    1
    47    24    25    1
    48    24    48    1
    49    24    49    1
    50    26    27    1
    51    26    50    1
    52    26    51    1
    53    27    28    1
    54    27    52    1
    55    27    53    1
@<TRIPOS>SUBSTRUCTURE
     1 ZINC001340305486        1 TEMP              0 ****  ****    0 ROOT


##########                                Name:    ZINC000822206030
##########                DOCK_Rotatable_Bonds:                   7
##########                         Heavy_Atoms:                  29
##########                    Molecular_Weight:             391.448
##########                DOCK_Rotatable_Bonds:                   7
##########                       Formal_Charge:         -0.00999995
##########                     HBond_Acceptors:                   7
##########                        HBond_Donors:                   1
##########                         Heavy_Atoms:                  29
##########                          Grid_Score:          -32.550251
##########                     Grid_vdw_energy:          -33.802155
##########                      Grid_es_energy:            1.251903
##########           Internal_energy_repulsive:           20.205881

@<TRIPOS>MOLECULE
ZINC000822206030
 51 55 1 0 0
SMALL
USER_CHARGES


@<TRIPOS>ATOM
      1 C1          2.0229    0.5109   48.0498 C.3     1  ZINC000822206030   -0.1300
      2 C2          0.5882    0.0543   47.9833 C.ar    1  ZINC000822206030   -0.0400
      3 C3          0.2817   -1.2842   48.1293 C.ar    1  ZINC000822206030   -0.1500
      4 C4         -1.0366   -1.7044   48.0678 C.ar    1  ZINC000822206030    0.1100
      5 F5         -1.3344   -3.0143   48.2105 F       1  ZINC000822206030   -0.1400
      6 C6         -2.0497   -0.7836   47.8608 C.ar    1  ZINC000822206030   -0.1500
      7 C7         -1.7472    0.5562   47.7142 C.ar    1  ZINC000822206030   -0.0800
      8 C8         -0.4269    0.9801   47.7808 C.ar    1  ZINC000822206030    0.1100
      9 N9         -0.1181    2.3379   47.6329 N.am    1  ZINC000822206030   -0.5600
     10 C10         0.2247    3.1433   48.8077 C.3     1  ZINC000822206030    0.1500
     11 C11        -1.0261    3.7659   49.3723 C.ar    1  ZINC000822206030   -0.0900
     12 C12        -1.8638    3.0182   50.1800 C.ar    1  ZINC000822206030   -0.1000
     13 C13        -3.0105    3.5836   50.7001 C.ar    1  ZINC000822206030   -0.0800
     14 C14        -3.3235    4.9097   50.4103 C.ar    1  ZINC000822206030   -0.0100
     15 C15        -4.5553    5.5233   50.9672 C.2     1  ZINC000822206030    0.2200
     16 N16        -5.4391    4.9410   51.7528 N.2     1  ZINC000822206030   -0.2900
     17 N17        -6.3601    5.8027   52.0171 N.pl3   1  ZINC000822206030   -0.2300
     18 N18        -6.0880    6.9123   51.4240 N.2     1  ZINC000822206030   -0.0500
     19 N19        -4.9821    6.7792   50.7735 N.2     1  ZINC000822206030   -0.2700
     20 C20        -2.4764    5.6581   49.5962 C.ar    1  ZINC000822206030   -0.0800
     21 C21        -1.3295    5.0845   49.0855 C.ar    1  ZINC000822206030   -0.0900
     22 C22        -0.1365    2.9039   46.4099 C.2     1  ZINC000822206030    0.5500
     23 O23         0.1294    4.0803   46.2820 O.2     1  ZINC000822206030   -0.5000
     24 C24        -0.4874    2.0750   45.2012 C.3     1  ZINC000822206030   -0.1900
     25 H25        -1.5460    1.8449   45.0802 H       1  ZINC000822206030    0.1200
     26 C26         0.5214    1.0151   44.7543 C.3     1  ZINC000822206030   -0.1400
     27 C27         0.3379    2.2927   43.9314 C.3     1  ZINC000822206030   -0.0900
     28 H28        -0.1776    2.2056   42.9750 H       1  ZINC000822206030    0.1100
     29 C29         1.4568    3.3348   43.9854 C.3     1  ZINC000822206030   -0.1100
     30 C30         2.2812    3.5528   42.7152 C.3     1  ZINC000822206030   -0.2000
     31 C31         1.2727    4.6123   43.1639 C.3     1  ZINC000822206030   -0.1200
     32 H32         2.2814    0.7475   49.0819 H       1  ZINC000822206030    0.0900
     33 H33         2.6742   -0.2834   47.6851 H       1  ZINC000822206030    0.0700
     34 H34         2.1507    1.3988   47.4305 H       1  ZINC000822206030    0.0700
     35 H35         1.0704   -2.0039   48.2913 H       1  ZINC000822206030    0.1400
     36 H36        -3.0771   -1.1132   47.8135 H       1  ZINC000822206030    0.1400
     37 H37        -2.5377    1.2741   47.5523 H       1  ZINC000822206030    0.1400
     38 H38         0.6864    2.5067   49.5625 H       1  ZINC000822206030    0.1000
     39 H39         0.9229    3.9288   48.5184 H       1  ZINC000822206030    0.0900
     40 H40        -1.6204    1.9901   50.4039 H       1  ZINC000822206030    0.1300
     41 H41        -3.6640    2.9989   51.3305 H       1  ZINC000822206030    0.1400
     42 H42        -7.1368    5.6405   52.5752 H       1  ZINC000822206030    0.4800
     43 H43        -2.7147    6.6865   49.3680 H       1  ZINC000822206030    0.1300
     44 H44        -0.6720    5.6639   48.4544 H       1  ZINC000822206030    0.1400
     45 H45         1.4390    0.9174   45.3345 H       1  ZINC000822206030    0.1000
     46 H46         0.1266    0.0879   44.3389 H       1  ZINC000822206030    0.1000
     47 H47         1.9727    3.4214   44.9417 H       1  ZINC000822206030    0.1000
     48 H48         3.3398    3.7828   42.8354 H       1  ZINC000822206030    0.0900
     49 H49         2.0265    2.9539   41.8409 H       1  ZINC000822206030    0.0900
     50 H50         0.3545    4.7103   42.5848 H       1  ZINC000822206030    0.0800
     51 H51         1.6680    5.5392   43.5794 H       1  ZINC000822206030    0.0900
@<TRIPOS>BOND
     1     1     2    1
     2     1    32    1
     3     1    33    1
     4     1    34    1
     5     2     8   ar
     6     2     3   ar
     7     3     4   ar
     8     3    35    1
     9     4     5    1
    10     4     6   ar
    11     6     7   ar
    12     6    36    1
    13     7     8   ar
    14     7    37    1
    15     8     9    1
    16     9    10    1
    17     9    22   am
    18    10    11    1
    19    10    38    1
    20    10    39    1
    21    11    21   ar
    22    11    12   ar
    23    12    13   ar
    24    12    40    1
    25    13    14   ar
    26    13    41    1
    27    14    15    1
    28    14    20   ar
    29    15    19    1
    30    15    16    2
    31    16    17    1
    32    17    18    1
    33    17    42    1
    34    18    19    2
    35    20    21   ar
    36    20    43    1
    37    21    44    1
    38    22    23    2
    39    22    24    1
    40    24    25    1
    41    24    27    1
    42    24    26    1
    43    26    27    1
    44    26    45    1
    45    26    46    1
    46    27    28    1
    47    27    29    1
    48    29    31    1
    49    29    30    1
    50    29    47    1
    51    30    31    1
    52    30    48    1
    53    30    49    1
    54    31    50    1
    55    31    51    1
@<TRIPOS>SUBSTRUCTURE
     1 ZINC000822206030        1 TEMP              0 ****  ****    0 ROOT


##########                                Name:    ZINC000489986384
##########                DOCK_Rotatable_Bonds:                  11
##########                         Heavy_Atoms:                  31
##########                    Molecular_Weight:             415.492
##########                DOCK_Rotatable_Bonds:                  11
##########                       Formal_Charge:          -0.0499997
##########                     HBond_Acceptors:                   6
##########                        HBond_Donors:                   2
##########                         Heavy_Atoms:                  31
##########                          Grid_Score:          -32.529251
##########                     Grid_vdw_energy:          -31.698399
##########                      Grid_es_energy:           -0.830854
##########           Internal_energy_repulsive:            9.002425

@<TRIPOS>MOLECULE
ZINC000489986384
 56 59 1 0 0
SMALL
USER_CHARGES


@<TRIPOS>ATOM
      1 O1         -6.8168    1.7386   57.3782 O.2     1  ZINC000489986384   -0.5000
      2 C2         -7.7304    2.4762   57.0746 C.2     1  ZINC000489986384    0.4900
      3 C3         -8.9261    2.6078   57.9824 C.3     1  ZINC000489986384    0.0900
      4 N4         -9.2103    1.3132   58.6065 N.pl3   1  ZINC000489986384   -0.4700
      5 C5         -8.8441    0.9199   59.8782 C.ar    1  ZINC000489986384    0.0700
      6 C6         -8.1530    1.5282   60.9168 C.ar    1  ZINC000489986384   -0.1100
      7 C7         -7.9486    0.8421   62.0954 C.ar    1  ZINC000489986384   -0.0900
      8 C8         -8.4284   -0.4506   62.2487 C.ar    1  ZINC000489986384   -0.1300
      9 C9         -9.1105   -1.0655   61.2370 C.ar    1  ZINC000489986384   -0.0600
     10 C10        -9.3303   -0.3895   60.0343 C.ar    1  ZINC000489986384    0.0500
     11 N11        -9.9542   -0.7203   58.8745 N.2     1  ZINC000489986384   -0.4600
     12 C12        -9.8891    0.2779   58.0426 C.2     1  ZINC000489986384    0.2800
     13 C13       -10.4710    0.2825   56.6525 C.3     1  ZINC000489986384    0.1400
     14 O14       -11.2994   -0.8689   56.4790 O.3     1  ZINC000489986384   -0.3000
     15 C15       -11.2784   -1.4660   55.2584 C.ar    1  ZINC000489986384    0.1300
     16 C16       -11.3420   -0.6952   54.1067 C.ar    1  ZINC000489986384   -0.2100
     17 C17       -11.3199   -1.3045   52.8671 C.ar    1  ZINC000489986384   -0.0800
     18 C18       -11.2350   -2.6814   52.7736 C.ar    1  ZINC000489986384   -0.1600
     19 C19       -11.1720   -3.4519   53.9199 C.ar    1  ZINC000489986384   -0.0800
     20 C20       -11.1875   -2.8469   55.1619 C.ar    1  ZINC000489986384   -0.1500
     21 N21        -7.6740    3.1824   55.9280 N.am    1  ZINC000489986384   -0.7300
     22 C22        -6.5117    3.0545   55.0456 C.3     1  ZINC000489986384    0.1300
     23 C23        -6.7681    3.8259   53.7494 C.3     1  ZINC000489986384   -0.0600
     24 H24        -6.9390    4.8775   53.9801 H       1  ZINC000489986384    0.0900
     25 C25        -5.5522    3.6965   52.8298 C.3     1  ZINC000489986384    0.0800
     26 O26        -5.6901    4.5964   51.7283 O.3     1  ZINC000489986384   -0.5700
     27 C27        -7.9822    3.2593   53.0595 C.ar    1  ZINC000489986384   -0.0700
     28 C28        -9.1141    4.0372   52.9028 C.ar    1  ZINC000489986384   -0.1100
     29 C29       -10.2278    3.5175   52.2699 C.ar    1  ZINC000489986384   -0.1200
     30 C30       -10.2094    2.2200   51.7934 C.ar    1  ZINC000489986384   -0.1200
     31 C31        -9.0773    1.4423   51.9494 C.ar    1  ZINC000489986384   -0.1200
     32 C32        -7.9621    1.9634   52.5784 C.ar    1  ZINC000489986384   -0.1100
     33 H33        -8.7151    3.3457   58.7565 H       1  ZINC000489986384    0.1200
     34 H34        -9.7905    2.9283   57.4008 H       1  ZINC000489986384    0.1200
     35 H35        -7.7769    2.5341   60.8024 H       1  ZINC000489986384    0.1200
     36 H36        -7.4111    1.3142   62.9044 H       1  ZINC000489986384    0.1300
     37 H37        -8.2608   -0.9763   63.1771 H       1  ZINC000489986384    0.1300
     38 H38        -9.4789   -2.0723   61.3667 H       1  ZINC000489986384    0.1300
     39 H39       -11.0674    1.1838   56.5111 H       1  ZINC000489986384    0.0800
     40 H40        -9.6636    0.2626   55.9205 H       1  ZINC000489986384    0.1000
     41 H41       -11.4090    0.3803   54.1792 H       1  ZINC000489986384    0.1300
     42 H42       -11.3694   -0.7049   51.9702 H       1  ZINC000489986384    0.1300
     43 H43       -11.2182   -3.1558   51.8035 H       1  ZINC000489986384    0.1200
     44 H44       -11.1060   -4.5272   53.8444 H       1  ZINC000489986384    0.1300
     45 H45       -11.1382   -3.4493   56.0570 H       1  ZINC000489986384    0.1300
     46 H46        -8.4030    3.7753   55.6872 H       1  ZINC000489986384    0.4000
     47 H47        -5.6314    3.4619   55.5427 H       1  ZINC000489986384    0.0800
     48 H48        -6.3444    2.0023   54.8151 H       1  ZINC000489986384    0.0800
     49 H49        -4.6476    3.9403   53.3870 H       1  ZINC000489986384    0.0500
     50 H50        -5.4852    2.6743   52.4577 H       1  ZINC000489986384    0.0500
     51 H51        -6.4748    4.4371   51.1861 H       1  ZINC000489986384    0.3800
     52 H52        -9.1284    5.0509   53.2750 H       1  ZINC000489986384    0.1200
     53 H53       -11.1123    4.1251   52.1481 H       1  ZINC000489986384    0.1200
     54 H54       -11.0798    1.8137   51.2996 H       1  ZINC000489986384    0.1200
     55 H55        -9.0630    0.4285   51.5773 H       1  ZINC000489986384    0.1200
     56 H56        -7.0775    1.3559   52.7002 H       1  ZINC000489986384    0.1200
@<TRIPOS>BOND
     1     1     2    2
     2     2     3    1
     3     2    21   am
     4     3     4    1
     5     3    33    1
     6     3    34    1
     7     4    12    1
     8     4     5    1
     9     5    10   ar
    10     5     6   ar
    11     6     7   ar
    12     6    35    1
    13     7     8   ar
    14     7    36    1
    15     8     9   ar
    16     8    37    1
    17     9    10   ar
    18     9    38    1
    19    10    11    1
    20    11    12    2
    21    12    13    1
    22    13    14    1
    23    13    39    1
    24    13    40    1
    25    14    15    1
    26    15    20   ar
    27    15    16   ar
    28    16    17   ar
    29    16    41    1
    30    17    18   ar
    31    17    42    1
    32    18    19   ar
    33    18    43    1
    34    19    20   ar
    35    19    44    1
    36    20    45    1
    37    21    22    1
    38    21    46    1
    39    22    23    1
    40    22    47    1
    41    22    48    1
    42    23    24    1
    43    23    25    1
    44    23    27    1
    45    25    26    1
    46    25    49    1
    47    25    50    1
    48    26    51    1
    49    27    32   ar
    50    27    28   ar
    51    28    29   ar
    52    28    52    1
    53    29    30   ar
    54    29    53    1
    55    30    31   ar
    56    30    54    1
    57    31    32   ar
    58    31    55    1
    59    32    56    1
@<TRIPOS>SUBSTRUCTURE
     1 ZINC000489986384        1 TEMP              0 ****  ****    0 ROOT


##########                                Name:    ZINC000076573199
##########                DOCK_Rotatable_Bonds:                  10
##########                         Heavy_Atoms:                  24
##########                    Molecular_Weight:             333.431
##########                DOCK_Rotatable_Bonds:                  10
##########                       Formal_Charge:          -0.0200009
##########                     HBond_Acceptors:                   6
##########                        HBond_Donors:                   3
##########                         Heavy_Atoms:                  24
##########                          Grid_Score:          -32.523670
##########                     Grid_vdw_energy:          -30.077986
##########                      Grid_es_energy:           -2.445683
##########           Internal_energy_repulsive:           20.165966

@<TRIPOS>MOLECULE
ZINC000076573199
 51 51 1 0 0
SMALL
USER_CHARGES


@<TRIPOS>ATOM
      1 C1         -7.5906    1.8660   56.9418 C.3     1  ZINC000076573199   -0.1500
      2 C2         -7.3824    3.3711   56.7612 C.3     1  ZINC000076573199   -0.1200
      3 C3         -6.2847    3.6131   55.7232 C.3     1  ZINC000076573199   -0.1000
      4 H4         -6.1527    4.6851   55.5772 H       1  ZINC000076573199    0.0700
      5 C5         -6.6846    2.9632   54.3971 C.3     1  ZINC000076573199   -0.1500
      6 C6         -4.9724    3.0001   56.2163 C.3     1  ZINC000076573199   -0.1200
      7 C7         -3.8073    3.9163   55.8369 C.3     1  ZINC000076573199    0.1400
      8 H8         -4.1826    4.9217   55.6468 H       1  ZINC000076573199    0.1000
      9 C9         -2.7965    3.9578   56.9848 C.3     1  ZINC000076573199   -0.1700
     10 N10        -3.1549    3.4022   54.6301 N.am    1  ZINC000076573199   -0.6900
     11 C11        -3.2538    4.0805   53.4696 C.2     1  ZINC000076573199    0.5100
     12 O12        -3.8846    5.1164   53.4241 O.2     1  ZINC000076573199   -0.5100
     13 C13        -2.5872    3.5575   52.2397 C.2     1  ZINC000076573199    0.5100
     14 O14        -1.6240    2.8251   52.3363 O.2     1  ZINC000076573199   -0.5000
     15 N15        -3.0551    3.8986   51.0227 N.am    1  ZINC000076573199   -0.6400
     16 C16        -2.4314    3.4092   49.8722 C.ar    1  ZINC000076573199    0.1500
     17 C17        -1.5652    4.2221   49.1511 C.ar    1  ZINC000076573199   -0.1300
     18 C18        -0.9479    3.7384   48.0136 C.ar    1  ZINC000076573199   -0.0800
     19 C19        -1.1894    2.4461   47.5892 C.ar    1  ZINC000076573199   -0.1200
     20 C20        -0.5135    1.9228   46.3481 C.3     1  ZINC000076573199   -0.1100
     21 C21        -2.0545    1.6281   48.3057 C.ar    1  ZINC000076573199    0.1600
     22 N22        -2.2984    0.3193   47.8750 N.am    1  ZINC000076573199   -0.6700
     23 C23        -1.3976   -0.6514   48.1254 C.2     1  ZINC000076573199    0.5100
     24 C24        -1.6601   -2.0610   47.6616 C.3     1  ZINC000076573199   -0.1700
     25 O25        -0.3755   -0.3905   48.7241 O.2     1  ZINC000076573199   -0.5200
     26 C26        -2.6719    2.1084   49.4511 C.ar    1  ZINC000076573199   -0.1400
     27 H27        -6.6614    1.4091   57.2822 H       1  ZINC000076573199    0.0600
     28 H28        -8.3725    1.6936   57.6812 H       1  ZINC000076573199    0.0500
     29 H29        -7.8860    1.4233   55.9906 H       1  ZINC000076573199    0.0500
     30 H30        -8.3115    3.8280   56.4208 H       1  ZINC000076573199    0.0600
     31 H31        -7.0869    3.8136   57.7125 H       1  ZINC000076573199    0.0600
     32 H32        -6.7357    1.8817   54.5233 H       1  ZINC000076573199    0.0600
     33 H33        -7.6598    3.3393   54.0877 H       1  ZINC000076573199    0.0600
     34 H34        -5.9434    3.2055   53.6357 H       1  ZINC000076573199    0.0500
     35 H35        -5.0084    2.8879   57.2999 H       1  ZINC000076573199    0.0800
     36 H36        -4.8317    2.0229   55.7543 H       1  ZINC000076573199    0.0700
     37 H37        -1.9664    4.6106   56.7145 H       1  ZINC000076573199    0.0600
     38 H38        -3.2819    4.3403   57.8827 H       1  ZINC000076573199    0.0700
     39 H39        -2.4211    2.9523   57.1750 H       1  ZINC000076573199    0.0600
     40 H40        -2.6517    2.5738   54.6662 H       1  ZINC000076573199    0.4100
     41 H41        -3.8249    4.4838   50.9456 H       1  ZINC000076573199    0.4200
     42 H42        -1.3747    5.2330   49.4800 H       1  ZINC000076573199    0.1400
     43 H43        -0.2754    4.3722   47.4546 H       1  ZINC000076573199    0.1300
     44 H44         0.4367    1.4624   46.6187 H       1  ZINC000076573199    0.0700
     45 H45        -1.1538    1.1809   45.8711 H       1  ZINC000076573199    0.0600
     46 H46        -0.3345    2.7465   45.6571 H       1  ZINC000076573199    0.0700
     47 H47        -3.1157    0.1106   47.3962 H       1  ZINC000076573199    0.4100
     48 H48        -1.7653   -2.0729   46.5767 H       1  ZINC000076573199    0.0900
     49 H49        -0.8269   -2.7006   47.9528 H       1  ZINC000076573199    0.1000
     50 H50        -2.5781   -2.4292   48.1196 H       1  ZINC000076573199    0.0900
     51 H51        -3.3447    1.4745   50.0097 H       1  ZINC000076573199    0.1400
@<TRIPOS>BOND
     1     1     2    1
     2     1    27    1
     3     1    28    1
     4     1    29    1
     5     2     3    1
     6     2    30    1
     7     2    31    1
     8     3     4    1
     9     3     5    1
    10     3     6    1
    11     5    32    1
    12     5    33    1
    13     5    34    1
    14     6     7    1
    15     6    35    1
    16     6    36    1
    17     7     8    1
    18     7     9    1
    19     7    10    1
    20     9    37    1
    21     9    38    1
    22     9    39    1
    23    10    11   am
    24    10    40    1
    25    11    12    2
    26    11    13    1
    27    13    14    2
    28    13    15   am
    29    15    16    1
    30    15    41    1
    31    16    26   ar
    32    16    17   ar
    33    17    18   ar
    34    17    42    1
    35    18    19   ar
    36    18    43    1
    37    19    20    1
    38    19    21   ar
    39    20    44    1
    40    20    45    1
    41    20    46    1
    42    21    22    1
    43    21    26   ar
    44    22    23   am
    45    22    47    1
    46    23    24    1
    47    23    25    2
    48    24    48    1
    49    24    49    1
    50    24    50    1
    51    26    51    1
@<TRIPOS>SUBSTRUCTURE
     1 ZINC000076573199        1 TEMP              0 ****  ****    0 ROOT


##########                                Name:    ZINC000963156778
##########                DOCK_Rotatable_Bonds:                   6
##########                         Heavy_Atoms:                  24
##########                    Molecular_Weight:             349.414
##########                DOCK_Rotatable_Bonds:                   6
##########                       Formal_Charge:         -0.00999984
##########                     HBond_Acceptors:                   9
##########                        HBond_Donors:                   2
##########                         Heavy_Atoms:                  24
##########                          Grid_Score:          -32.513035
##########                     Grid_vdw_energy:          -31.029524
##########                      Grid_es_energy:           -1.483509
##########           Internal_energy_repulsive:           11.938941

@<TRIPOS>MOLECULE
ZINC000963156778
 43 46 1 0 0
SMALL
USER_CHARGES


@<TRIPOS>ATOM
      1 C1         -2.5133    2.5418   57.1460 C.3     1  ZINC000963156778   -0.0800
      2 C2         -1.5841    3.5734   56.5598 C.2     1  ZINC000963156778    0.0300
      3 C3         -1.8085    4.2069   55.3851 C.2     1  ZINC000963156778   -0.2600
      4 C4         -2.9759    4.0342   54.4478 C.3     1  ZINC000963156778    0.1300
      5 N5         -2.5515    4.3415   53.0754 N.3     1  ZINC000963156778   -0.5000
      6 C6         -3.6619    4.1229   52.1131 C.3     1  ZINC000963156778    0.0600
      7 C7         -2.9643    3.9502   50.7469 C.3     1  ZINC000963156778   -0.1700
      8 H8         -3.1556    4.7043   49.9833 H       1  ZINC000963156778    0.1200
      9 C9         -1.5346    3.4791   51.0834 C.3     1  ZINC000963156778   -0.1700
     10 H10        -0.6626    3.8720   50.5607 H       1  ZINC000963156778    0.1200
     11 C11        -1.4886    3.4065   52.6249 C.3     1  ZINC000963156778    0.0600
     12 C12        -2.5409    2.5416   50.3259 C.3     1  ZINC000963156778    0.1200
     13 H13        -2.9579    1.7004   50.8797 H       1  ZINC000963156778    0.1400
     14 N14        -2.2981    2.3012   48.9013 N.am    1  ZINC000963156778   -0.7000
     15 C15        -2.7542    1.1735   48.3209 C.2     1  ZINC000963156778    0.5100
     16 O16        -3.3668    0.3585   48.9777 O.2     1  ZINC000963156778   -0.5000
     17 C17        -2.5029    0.9255   46.8558 C.3     1  ZINC000963156778   -0.1300
     18 C18        -1.3856   -0.1078   46.6978 C.3     1  ZINC000963156778   -0.1100
     19 H19        -1.0046   -0.1059   45.6765 H       1  ZINC000963156778    0.1300
     20 C20        -1.8870   -1.5133   47.0876 C.3     1  ZINC000963156778   -0.1600
     21 C21        -1.0030   -1.8940   48.2551 C.2     1  ZINC000963156778    0.5300
     22 O22        -1.0621   -2.9372   48.8698 O.2     1  ZINC000963156778   -0.4800
     23 N23        -0.1448   -0.8964   48.5014 N.am    1  ZINC000963156778   -0.6900
     24 C24        -0.2691    0.1603   47.6832 C.2     1  ZINC000963156778    0.5200
     25 O25         0.4040    1.1675   47.7298 O.2     1  ZINC000963156778   -0.4500
     26 S26        -0.4555    5.2558   55.2074 S.3     1  ZINC000963156778    0.4500
     27 N27         0.2455    4.8413   56.5440 N.2     1  ZINC000963156778   -0.2900
     28 N28        -0.4656    3.9633   57.1365 N.2     1  ZINC000963156778   -0.2400
     29 H29        -3.2497    3.0349   57.7806 H       1  ZINC000963156778    0.0900
     30 H30        -3.0234    2.0130   56.3410 H       1  ZINC000963156778    0.0800
     31 H31        -1.9388    1.8314   57.7406 H       1  ZINC000963156778    0.0800
     32 H32        -3.3317    3.0050   54.4963 H       1  ZINC000963156778    0.1000
     33 H33        -3.7793    4.7104   54.7397 H       1  ZINC000963156778    0.0700
     34 H34        -4.2179    3.2219   52.3727 H       1  ZINC000963156778    0.0600
     35 H35        -4.3250    4.9877   52.0949 H       1  ZINC000963156778    0.0800
     36 H36        -0.5153    3.7322   52.9918 H       1  ZINC000963156778    0.1000
     37 H37        -1.7044    2.3935   52.9643 H       1  ZINC000963156778    0.0500
     38 H38        -1.8092    2.9536   48.3758 H       1  ZINC000963156778    0.4000
     39 H39        -3.4137    0.5500   46.3895 H       1  ZINC000963156778    0.1000
     40 H40        -2.2063    1.8578   46.3752 H       1  ZINC000963156778    0.1200
     41 H41        -2.9324   -1.4763   47.3941 H       1  ZINC000963156778    0.1200
     42 H42        -1.7529   -2.2113   46.2611 H       1  ZINC000963156778    0.1300
     43 H43         0.5142   -0.9343   49.2122 H       1  ZINC000963156778    0.4200
@<TRIPOS>BOND
     1     1     2    1
     2     1    29    1
     3     1    30    1
     4     1    31    1
     5     2    28    1
     6     2     3    2
     7     3     4    1
     8     3    26    1
     9     4     5    1
    10     4    32    1
    11     4    33    1
    12     5    11    1
    13     5     6    1
    14     6     7    1
    15     6    34    1
    16     6    35    1
    17     7     8    1
    18     7    12    1
    19     7     9    1
    20     9    10    1
    21     9    11    1
    22     9    12    1
    23    11    36    1
    24    11    37    1
    25    12    13    1
    26    12    14    1
    27    14    15   am
    28    14    38    1
    29    15    16    2
    30    15    17    1
    31    17    18    1
    32    17    39    1
    33    17    40    1
    34    18    19    1
    35    18    24    1
    36    18    20    1
    37    20    21    1
    38    20    41    1
    39    20    42    1
    40    21    22    2
    41    21    23   am
    42    23    24   am
    43    23    43    1
    44    24    25    2
    45    26    27    1
    46    27    28    2
@<TRIPOS>SUBSTRUCTURE
     1 ZINC000963156778        1 TEMP              0 ****  ****    0 ROOT


##########                                Name:    ZINC000555499135
##########                DOCK_Rotatable_Bonds:                   8
##########                         Heavy_Atoms:                  26
##########                    Molecular_Weight:             377.554
##########                DOCK_Rotatable_Bonds:                   8
##########                       Formal_Charge:           0.0399999
##########                     HBond_Acceptors:                   7
##########                        HBond_Donors:                   0
##########                         Heavy_Atoms:                  26
##########                          Grid_Score:          -32.503624
##########                     Grid_vdw_energy:          -32.148376
##########                      Grid_es_energy:           -0.355249
##########           Internal_energy_repulsive:           18.200953

@<TRIPOS>MOLECULE
ZINC000555499135
 57 59 1 0 0
SMALL
USER_CHARGES


@<TRIPOS>ATOM
      1 C1         -5.0443    4.1110   52.0539 C.3     1  ZINC000555499135   -0.1500
      2 C2         -3.6472    4.4992   51.5658 C.3     1  ZINC000555499135   -0.0500
      3 C3         -3.1797    3.5024   50.5368 C.2     1  ZINC000555499135   -0.2100
      4 C4         -2.3397    3.7498   49.5273 C.2     1  ZINC000555499135    0.0300
      5 N5         -2.0846    2.7085   48.7610 N.2     1  ZINC000555499135   -0.4500
      6 C6         -2.6625    1.5965   49.0679 C.2     1  ZINC000555499135    0.0400
      7 C7         -2.4965    0.3016   48.3151 C.3     1  ZINC000555499135    0.1500
      8 N8         -1.0956    0.1535   47.8985 N.3     1  ZINC000555499135   -0.4500
      9 C9         -0.6822   -1.2557   47.9334 C.3     1  ZINC000555499135    0.0100
     10 C10        -0.8907    0.7002   46.6417 C.2     1  ZINC000555499135    0.3500
     11 N11        -1.7501    0.7202   45.6503 N.2     1  ZINC000555499135   -0.3100
     12 N12        -1.2289    1.3069   44.6324 N.2     1  ZINC000555499135   -0.2900
     13 C13        -0.0162    1.6930   44.9117 C.2     1  ZINC000555499135    0.2100
     14 C14         0.9264    2.4169   43.9852 C.3     1  ZINC000555499135   -0.0300
     15 C15         1.3856    1.4649   42.8790 C.3     1  ZINC000555499135   -0.0900
     16 C16         1.6167    2.2551   41.5895 C.3     1  ZINC000555499135   -0.1500
     17 C17         2.6892    0.7840   43.3006 C.3     1  ZINC000555499135   -0.1500
     18 N18         0.2406    1.3247   46.2033 N.pl3   1  ZINC000555499135   -0.4600
     19 C19         1.4768    1.5469   46.9573 C.3     1  ZINC000555499135    0.1100
     20 C20         1.3039    2.7590   47.8747 C.3     1  ZINC000555499135    0.0700
     21 H21         0.4921    2.5703   48.5772 H       1  ZINC000555499135    0.0700
     22 C22         0.9733    3.9938   47.0322 C.3     1  ZINC000555499135   -0.1500
     23 C23         0.8611    5.2142   47.9512 C.3     1  ZINC000555499135   -0.1200
     24 C24         2.1702    5.3752   48.7300 C.3     1  ZINC000555499135   -0.1600
     25 C25         2.4546    4.0870   49.5069 C.3     1  ZINC000555499135    0.0600
     26 O26         2.5157    2.9869   48.5970 O.3     1  ZINC000555499135   -0.3700
     27 S27        -3.6380    1.8030   50.4568 S.3     1  ZINC000555499135    0.1200
     28 H28        -5.7356    4.1075   51.2111 H       1  ZINC000555499135    0.0600
     29 H29        -5.0102    3.1172   52.5002 H       1  ZINC000555499135    0.0600
     30 H30        -5.3825    4.8320   52.7981 H       1  ZINC000555499135    0.0700
     31 H31        -3.6814    5.4931   51.1196 H       1  ZINC000555499135    0.0900
     32 H32        -2.9560    4.5028   52.4086 H       1  ZINC000555499135    0.0800
     33 H33        -1.9056    4.7233   49.3537 H       1  ZINC000555499135    0.1800
     34 H34        -2.7738   -0.5319   48.9603 H       1  ZINC000555499135    0.0800
     35 H35        -3.1386    0.3085   47.4343 H       1  ZINC000555499135    0.1200
     36 H36        -1.2281   -1.8134   47.1723 H       1  ZINC000555499135    0.0500
     37 H37         0.3878   -1.3254   47.7374 H       1  ZINC000555499135    0.0800
     38 H38        -0.8996   -1.6739   48.9162 H       1  ZINC000555499135    0.0900
     39 H39         0.4148    3.2706   43.5407 H       1  ZINC000555499135    0.1000
     40 H40         1.7927    2.7651   44.5477 H       1  ZINC000555499135    0.1000
     41 H41         0.6191    0.7087   42.7092 H       1  ZINC000555499135    0.0800
     42 H42         0.6987    2.7725   41.3108 H       1  ZINC000555499135    0.0500
     43 H43         2.4112    2.9845   41.7478 H       1  ZINC000555499135    0.0600
     44 H44         1.9051    1.5714   40.7910 H       1  ZINC000555499135    0.0600
     45 H45         2.5245    0.2210   44.2193 H       1  ZINC000555499135    0.0600
     46 H46         3.0163    0.1058   42.5125 H       1  ZINC000555499135    0.0600
     47 H47         3.4557    1.5403   43.4704 H       1  ZINC000555499135    0.0600
     48 H48         1.6992    0.6651   47.5583 H       1  ZINC000555499135    0.1100
     49 H49         2.2974    1.7302   46.2637 H       1  ZINC000555499135    0.1200
     50 H50         1.7656    4.1593   46.3021 H       1  ZINC000555499135    0.0800
     51 H51         0.0265    3.8391   46.5150 H       1  ZINC000555499135    0.0800
     52 H52         0.6812    6.1067   47.3519 H       1  ZINC000555499135    0.0700
     53 H53         0.0367    5.0701   48.6496 H       1  ZINC000555499135    0.0600
     54 H54         2.9866    5.5686   48.0341 H       1  ZINC000555499135    0.0700
     55 H55         2.0794    6.2083   49.4270 H       1  ZINC000555499135    0.0800
     56 H56         3.4067    4.1802   50.0291 H       1  ZINC000555499135    0.1000
     57 H57         1.6579    3.9158   50.2308 H       1  ZINC000555499135    0.0500
@<TRIPOS>BOND
     1     1     2    1
     2     1    28    1
     3     1    29    1
     4     1    30    1
     5     2     3    1
     6     2    31    1
     7     2    32    1
     8     3    27    1
     9     3     4    2
    10     4     5    1
    11     4    33    1
    12     5     6    2
    13     6     7    1
    14     6    27    1
    15     7     8    1
    16     7    34    1
    17     7    35    1
    18     8     9    1
    19     8    10    1
    20     9    36    1
    21     9    37    1
    22     9    38    1
    23    10    18    1
    24    10    11    2
    25    11    12    1
    26    12    13    2
    27    13    14    1
    28    13    18    1
    29    14    15    1
    30    14    39    1
    31    14    40    1
    32    15    16    1
    33    15    17    1
    34    15    41    1
    35    16    42    1
    36    16    43    1
    37    16    44    1
    38    17    45    1
    39    17    46    1
    40    17    47    1
    41    18    19    1
    42    19    20    1
    43    19    48    1
    44    19    49    1
    45    20    21    1
    46    20    26    1
    47    20    22    1
    48    22    23    1
    49    22    50    1
    50    22    51    1
    51    23    24    1
    52    23    52    1
    53    23    53    1
    54    24    25    1
    55    24    54    1
    56    24    55    1
    57    25    26    1
    58    25    56    1
    59    25    57    1
@<TRIPOS>SUBSTRUCTURE
     1 ZINC000555499135        1 TEMP              0 ****  ****    0 ROOT


##########                                Name:    ZINC000573150059
##########                DOCK_Rotatable_Bonds:                   7
##########                         Heavy_Atoms:                  23
##########                    Molecular_Weight:             378.269
##########                DOCK_Rotatable_Bonds:                   7
##########                       Formal_Charge:        -2.98023e-07
##########                     HBond_Acceptors:                   5
##########                        HBond_Donors:                   2
##########                         Heavy_Atoms:                  23
##########                          Grid_Score:          -32.496880
##########                     Grid_vdw_energy:          -31.945105
##########                      Grid_es_energy:           -0.551773
##########           Internal_energy_repulsive:           12.639738

@<TRIPOS>MOLECULE
ZINC000573150059
 43 44 1 0 0
SMALL
USER_CHARGES


@<TRIPOS>ATOM
      1 C1         -6.8715    2.5380   52.7939 C.3     1  ZINC000573150059    0.0300
      2 O2         -7.0717    3.8886   53.2155 O.3     1  ZINC000573150059   -0.3600
      3 C3         -5.8638    4.6392   53.3550 C.3     1  ZINC000573150059    0.0700
      4 H4         -6.1043    5.6950   53.4788 H       1  ZINC000573150059    0.0900
      5 C5         -5.0944    4.1441   54.5813 C.3     1  ZINC000573150059   -0.1700
      6 C6         -5.0150    4.4585   52.1229 C.2     1  ZINC000573150059    0.5100
      7 O7         -5.2213    5.1379   51.1395 O.2     1  ZINC000573150059   -0.4900
      8 N8         -4.0269    3.5421   52.1137 N.am    1  ZINC000573150059   -0.6700
      9 C9         -3.2389    3.3745   50.9696 C.ar    1  ZINC000573150059    0.1900
     10 C10        -2.3650    4.3793   50.5740 C.ar    1  ZINC000573150059   -0.2000
     11 C11        -1.5863    4.2147   49.4444 C.ar    1  ZINC000573150059   -0.0500
     12 C12        -1.6735    3.0511   48.7053 C.ar    1  ZINC000573150059   -0.2200
     13 C13        -2.5454    2.0417   49.0959 C.ar    1  ZINC000573150059    0.2400
     14 N14        -2.6328    0.8652   48.3484 N.pl3   1  ZINC000573150059   -0.7300
     15 C15        -1.4417    0.0373   48.1434 C.3     1  ZINC000573150059    0.2000
     16 H16        -0.7588    0.1692   48.9826 H       1  ZINC000573150059    0.1000
     17 C17        -1.8531   -1.4332   48.0468 C.3     1  ZINC000573150059   -0.1700
     18 C18        -0.7554    0.4518   46.8673 C.ar    1  ZINC000573150059    0.1400
     19 C19         0.6241    0.4189   46.7923 C.ar    1  ZINC000573150059   -0.1600
     20 C20         1.2462    0.8017   45.6138 C.ar    1  ZINC000573150059   -0.0400
     21 C21         0.4531    1.2053   44.5497 C.ar    1  ZINC000573150059   -0.1500
     22 Br22        1.2415    1.7385   42.9157 Br      1  ZINC000573150059   -0.0300
     23 C23        -0.9220    1.2122   44.6992 C.ar    1  ZINC000573150059    0.1400
     24 N24        -1.4787    0.8365   45.8338 N.ar    1  ZINC000573150059   -0.4700
     25 C25        -3.3253    2.2021   50.2325 C.ar    1  ZINC000573150059   -0.1900
     26 H26        -6.3740    2.5302   51.8241 H       1  ZINC000573150059    0.0500
     27 H27        -6.2519    2.0175   53.5242 H       1  ZINC000573150059    0.0400
     28 H28        -7.8355    2.0362   52.7118 H       1  ZINC000573150059    0.0900
     29 H29        -4.8538    3.0882   54.4575 H       1  ZINC000573150059    0.0700
     30 H30        -4.1730    4.7166   54.6877 H       1  ZINC000573150059    0.0700
     31 H31        -5.7082    4.2748   55.4725 H       1  ZINC000573150059    0.0700
     32 H32        -3.8619    2.9989   52.9002 H       1  ZINC000573150059    0.4100
     33 H33        -2.2945    5.2903   51.1498 H       1  ZINC000573150059    0.1200
     34 H34        -0.9082    4.9978   49.1387 H       1  ZINC000573150059    0.1300
     35 H35        -1.0638    2.9256   47.8227 H       1  ZINC000573150059    0.1200
     36 H36        -3.4823    0.5962   47.9649 H       1  ZINC000573150059    0.4100
     37 H37        -2.5360   -1.5651   47.2075 H       1  ZINC000573150059    0.0600
     38 H38        -0.9669   -2.0491   47.8943 H       1  ZINC000573150059    0.0700
     39 H39        -2.3495   -1.7329   48.9698 H       1  ZINC000573150059    0.0700
     40 H40         1.2103    0.0992   47.6411 H       1  ZINC000573150059    0.1500
     41 H41         2.3225    0.7863   45.5265 H       1  ZINC000573150059    0.1500
     42 H42        -1.5469    1.5253   43.8759 H       1  ZINC000573150059    0.1700
     43 H43        -4.0033    1.4192   50.5385 H       1  ZINC000573150059    0.1400
@<TRIPOS>BOND
     1     1     2    1
     2     1    26    1
     3     1    27    1
     4     1    28    1
     5     2     3    1
     6     3     4    1
     7     3     5    1
     8     3     6    1
     9     5    29    1
    10     5    30    1
    11     5    31    1
    12     6     7    2
    13     6     8   am
    14     8     9    1
    15     8    32    1
    16     9    25   ar
    17     9    10   ar
    18    10    11   ar
    19    10    33    1
    20    11    12   ar
    21    11    34    1
    22    12    13   ar
    23    12    35    1
    24    13    14    1
    25    13    25   ar
    26    14    15    1
    27    14    36    1
    28    15    16    1
    29    15    17    1
    30    15    18    1
    31    17    37    1
    32    17    38    1
    33    17    39    1
    34    18    24   ar
    35    18    19   ar
    36    19    20   ar
    37    19    40    1
    38    20    21   ar
    39    20    41    1
    40    21    22    1
    41    21    23   ar
    42    23    24   ar
    43    23    42    1
    44    25    43    1
@<TRIPOS>SUBSTRUCTURE
     1 ZINC000573150059        1 TEMP              0 ****  ****    0 ROOT


##########                                Name:    ZINC001369071670
##########                DOCK_Rotatable_Bonds:                   8
##########                         Heavy_Atoms:                  24
##########                    Molecular_Weight:             335.366
##########                DOCK_Rotatable_Bonds:                   8
##########                       Formal_Charge:        -2.90573e-07
##########                     HBond_Acceptors:                  10
##########                        HBond_Donors:                   1
##########                         Heavy_Atoms:                  24
##########                          Grid_Score:          -32.477268
##########                     Grid_vdw_energy:          -32.190903
##########                      Grid_es_energy:           -0.286366
##########           Internal_energy_repulsive:            8.683270

@<TRIPOS>MOLECULE
ZINC001369071670
 45 47 1 0 0
SMALL
USER_CHARGES


@<TRIPOS>ATOM
      1 C1         -5.6553    2.2850   56.0348 C.3     1  ZINC001369071670   -0.0800
      2 C2         -5.7001    3.2222   54.8554 C.2     1  ZINC001369071670    0.0000
      3 C3         -5.1165    4.4394   54.7673 C.2     1  ZINC001369071670   -0.2300
      4 C4         -5.4630    4.8919   53.4675 C.2     1  ZINC001369071670    0.2100
      5 O5         -5.1130    6.0718   52.8957 O.3     1  ZINC001369071670   -0.2600
      6 C6         -5.5012    6.2740   51.5354 C.3     1  ZINC001369071670    0.0400
      7 C7         -4.3180    6.0318   50.6340 C.2     1  ZINC001369071670    0.5200
      8 O8         -4.2209    6.6341   49.5858 O.2     1  ZINC001369071670   -0.5100
      9 N9         -3.3677    5.1460   50.9927 N.am    1  ZINC001369071670   -0.7200
     10 C10        -2.2166    4.9119   50.1172 C.3     1  ZINC001369071670    0.1500
     11 H11        -2.5325    4.9780   49.0761 H       1  ZINC001369071670    0.0900
     12 C12        -1.1434    5.9670   50.3926 C.3     1  ZINC001369071670   -0.1700
     13 C13        -1.6441    3.5192   50.3889 C.3     1  ZINC001369071670   -0.1200
     14 C14        -2.5573    2.3718   49.9207 C.3     1  ZINC001369071670    0.0100
     15 N15        -1.3225    1.7222   49.4283 N.3     1  ZINC001369071670   -0.4800
     16 C16        -1.5348    1.1234   48.1038 C.3     1  ZINC001369071670    0.1000
     17 C17        -1.2725   -0.3589   48.1748 C.2     1  ZINC001369071670    0.1900
     18 N18        -2.1651   -1.3046   48.3384 N.2     1  ZINC001369071670   -0.3000
     19 N19        -1.5492   -2.4362   48.3458 N.2     1  ZINC001369071670   -0.0700
     20 N20        -0.2869   -2.2369   48.1913 N.2     1  ZINC001369071670   -0.0900
     21 N21        -0.0768   -0.9691   48.0769 N.pl3   1  ZINC001369071670   -0.3000
     22 C22         1.2204   -0.3157   47.8859 C.3     1  ZINC001369071670    0.0800
     23 C23        -0.6526    3.0366   49.3148 C.3     1  ZINC001369071670    0.0200
     24 N24        -6.1857    3.9451   52.9316 N.2     1  ZINC001369071670   -0.4100
     25 O25        -6.3215    3.0102   53.6864 O.3     1  ZINC001369071670    0.1000
     26 H26        -6.2161    1.3800   55.8012 H       1  ZINC001369071670    0.0900
     27 H27        -4.6196    2.0245   56.2527 H       1  ZINC001369071670    0.1000
     28 H28        -6.0979    2.7726   56.9034 H       1  ZINC001369071670    0.1000
     29 H29        -4.5243    4.9487   55.5131 H       1  ZINC001369071670    0.1800
     30 H30        -6.3015    5.5797   51.2789 H       1  ZINC001369071670    0.1000
     31 H31        -5.8529    7.2975   51.4061 H       1  ZINC001369071670    0.1000
     32 H32        -3.4459    4.6634   51.8305 H       1  ZINC001369071670    0.4000
     33 H33        -1.5514    6.9591   50.1991 H       1  ZINC001369071670    0.0600
     34 H34        -0.8275    5.9009   51.4337 H       1  ZINC001369071670    0.0600
     35 H35        -0.2870    5.7928   49.7413 H       1  ZINC001369071670    0.0700
     36 H36        -1.2776    3.4021   51.4087 H       1  ZINC001369071670    0.1100
     37 H37        -3.0408    1.8345   50.7366 H       1  ZINC001369071670    0.1000
     38 H38        -3.2495    2.6568   49.1283 H       1  ZINC001369071670    0.0800
     39 H39        -2.5637    1.2956   47.7881 H       1  ZINC001369071670    0.1000
     40 H40        -0.8532    1.5790   47.3856 H       1  ZINC001369071670    0.0900
     41 H41         1.4293   -0.2272   46.8197 H       1  ZINC001369071670    0.1000
     42 H42         1.1969    0.6771   48.3351 H       1  ZINC001369071670    0.1000
     43 H43         2.0004   -0.9109   48.3607 H       1  ZINC001369071670    0.1100
     44 H44        -0.7878    3.5161   48.3453 H       1  ZINC001369071670    0.0800
     45 H45         0.3856    3.0306   49.6466 H       1  ZINC001369071670    0.1000
@<TRIPOS>BOND
     1     1     2    1
     2     1    26    1
     3     1    27    1
     4     1    28    1
     5     2    25    1
     6     2     3    2
     7     3     4    1
     8     3    29    1
     9     4     5    1
    10     4    24    2
    11     5     6    1
    12     6     7    1
    13     6    30    1
    14     6    31    1
    15     7     8    2
    16     7     9   am
    17     9    10    1
    18     9    32    1
    19    10    11    1
    20    10    12    1
    21    10    13    1
    22    12    33    1
    23    12    34    1
    24    12    35    1
    25    13    23    1
    26    13    14    1
    27    13    36    1
    28    14    15    1
    29    14    37    1
    30    14    38    1
    31    15    16    1
    32    15    23    1
    33    16    17    1
    34    16    39    1
    35    16    40    1
    36    17    21    1
    37    17    18    2
    38    18    19    1
    39    19    20    2
    40    20    21    1
    41    21    22    1
    42    22    41    1
    43    22    42    1
    44    22    43    1
    45    23    44    1
    46    23    45    1
    47    24    25    1
@<TRIPOS>SUBSTRUCTURE
     1 ZINC001369071670        1 TEMP              0 ****  ****    0 ROOT


##########                                Name:    ZINC000508571532
##########                DOCK_Rotatable_Bonds:                   9
##########                         Heavy_Atoms:                  30
##########                    Molecular_Weight:             422.407
##########                DOCK_Rotatable_Bonds:                   9
##########                       Formal_Charge:           0.0100001
##########                     HBond_Acceptors:                  10
##########                        HBond_Donors:                   0
##########                         Heavy_Atoms:                  30
##########                          Grid_Score:          -32.475624
##########                     Grid_vdw_energy:          -30.311487
##########                      Grid_es_energy:           -2.164138
##########           Internal_energy_repulsive:           15.632580

@<TRIPOS>MOLECULE
ZINC000508571532
 51 53 1 0 0
SMALL
USER_CHARGES


@<TRIPOS>ATOM
      1 C1          0.2719    1.4350   59.8758 C.3     1  ZINC000508571532    0.0300
      2 O2          0.6782    1.1942   58.5272 O.3     1  ZINC000508571532   -0.3200
      3 C3          0.1067    1.9645   57.5633 C.ar    1  ZINC000508571532    0.0900
      4 C4         -0.8220    2.9343   57.9107 C.ar    1  ZINC000508571532   -0.1700
      5 C5         -1.4027    3.7169   56.9316 C.ar    1  ZINC000508571532   -0.1100
      6 C6         -1.0565    3.5331   55.6011 C.ar    1  ZINC000508571532    0.0900
      7 O7         -1.6284    4.3031   54.6372 O.3     1  ZINC000508571532   -0.3100
      8 C8         -2.3480    3.6238   53.6063 C.3     1  ZINC000508571532    0.1500
      9 C9         -1.5725    3.7028   52.3166 C.2     1  ZINC000508571532    0.1700
     10 N10        -0.3523    4.1371   52.1745 N.2     1  ZINC000508571532   -0.2500
     11 N11        -0.0003    4.0666   50.9404 N.2     1  ZINC000508571532   -0.3000
     12 C12        -0.9850    3.5794   50.2230 C.2     1  ZINC000508571532    0.3500
     13 N13        -0.9767    3.3579   48.8550 N.3     1  ZINC000508571532   -0.4600
     14 C14        -0.6265    4.5838   48.1254 C.3     1  ZINC000508571532    0.0300
     15 C15        -0.0668    2.2589   48.5052 C.3     1  ZINC000508571532    0.1100
     16 C16        -0.1104    2.0250   47.0171 C.ar    1  ZINC000508571532   -0.0900
     17 C17         0.8910    2.5268   46.2089 C.ar    1  ZINC000508571532   -0.0600
     18 C18         0.8513    2.3130   44.8433 C.ar    1  ZINC000508571532   -0.1300
     19 C19        -0.1898    1.5962   44.2835 C.ar    1  ZINC000508571532   -0.0700
     20 C20        -1.1937    1.0917   45.0877 C.ar    1  ZINC000508571532   -0.1900
     21 C21        -1.1535    1.3004   46.4584 C.ar    1  ZINC000508571532    0.1100
     22 O22        -2.1397    0.8051   47.2515 O.3     1  ZINC000508571532   -0.3100
     23 C23        -2.0308   -0.5648   47.6431 C.3     1  ZINC000508571532    0.6000
     24 F24        -2.4206   -0.7002   48.9799 F       1  ZINC000508571532   -0.1600
     25 F25        -2.8603   -1.3485   46.8339 F       1  ZINC000508571532   -0.1300
     26 F26        -0.7049   -0.9870   47.4990 F       1  ZINC000508571532   -0.1600
     27 N27        -2.0170    3.3266   51.0793 N.pl3   1  ZINC000508571532   -0.4500
     28 C28        -3.3317    2.7755   50.7417 C.3     1  ZINC000508571532    0.0800
     29 C29        -0.1268    2.5643   55.2538 C.ar    1  ZINC000508571532   -0.1700
     30 C30         0.4567    1.7843   56.2333 C.ar    1  ZINC000508571532   -0.1100
     31 H31         0.8022    0.7545   60.5420 H       1  ZINC000508571532    0.1000
     32 H32         0.5050    2.4646   60.1473 H       1  ZINC000508571532    0.0600
     33 H33        -0.8017    1.2694   59.9668 H       1  ZINC000508571532    0.0600
     34 H34        -1.0915    3.0774   58.9467 H       1  ZINC000508571532    0.1400
     35 H35        -2.1263    4.4715   57.2020 H       1  ZINC000508571532    0.1300
     36 H36        -2.4832    2.5789   53.8855 H       1  ZINC000508571532    0.0800
     37 H37        -3.3226    4.0934   53.4736 H       1  ZINC000508571532    0.1000
     38 H38         0.4157    4.8372   48.3197 H       1  ZINC000508571532    0.0600
     39 H39        -0.7683    4.4236   47.0566 H       1  ZINC000508571532    0.0800
     40 H40        -1.2670    5.4004   48.4585 H       1  ZINC000508571532    0.0700
     41 H41         0.9489    2.5197   48.8025 H       1  ZINC000508571532    0.0700
     42 H42        -0.3759    1.3520   49.0248 H       1  ZINC000508571532    0.0900
     43 H43         1.7054    3.0871   46.6440 H       1  ZINC000508571532    0.1400
     44 H44         1.6349    2.7069   44.2130 H       1  ZINC000508571532    0.1300
     45 H45        -0.2187    1.4307   43.2167 H       1  ZINC000508571532    0.1400
     46 H46        -2.0070    0.5320   44.6498 H       1  ZINC000508571532    0.1400
     47 H47        -3.3251    1.6970   50.8995 H       1  ZINC000508571532    0.0900
     48 H48        -4.0908    3.2311   51.3776 H       1  ZINC000508571532    0.0900
     49 H49        -3.5575    2.9884   49.6969 H       1  ZINC000508571532    0.1000
     50 H50         0.1430    2.4214   54.2178 H       1  ZINC000508571532    0.1400
     51 H51         1.1806    1.0299   55.9629 H       1  ZINC000508571532    0.1400
@<TRIPOS>BOND
     1     1     2    1
     2     1    31    1
     3     1    32    1
     4     1    33    1
     5     2     3    1
     6     3    30   ar
     7     3     4   ar
     8     4     5   ar
     9     4    34    1
    10     5     6   ar
    11     5    35    1
    12     6     7    1
    13     6    29   ar
    14     7     8    1
    15     8     9    1
    16     8    36    1
    17     8    37    1
    18     9    27    1
    19     9    10    2
    20    10    11    1
    21    11    12    2
    22    12    13    1
    23    12    27    1
    24    13    14    1
    25    13    15    1
    26    14    38    1
    27    14    39    1
    28    14    40    1
    29    15    16    1
    30    15    41    1
    31    15    42    1
    32    16    21   ar
    33    16    17   ar
    34    17    18   ar
    35    17    43    1
    36    18    19   ar
    37    18    44    1
    38    19    20   ar
    39    19    45    1
    40    20    21   ar
    41    20    46    1
    42    21    22    1
    43    22    23    1
    44    23    24    1
    45    23    25    1
    46    23    26    1
    47    27    28    1
    48    28    47    1
    49    28    48    1
    50    28    49    1
    51    29    30   ar
    52    29    50    1
    53    30    51    1
@<TRIPOS>SUBSTRUCTURE
     1 ZINC000508571532        1 TEMP              0 ****  ****    0 ROOT


##########                                Name:    ZINC001574157642
##########                DOCK_Rotatable_Bonds:                   9
##########                         Heavy_Atoms:                  28
##########                    Molecular_Weight:             387.445
##########                DOCK_Rotatable_Bonds:                   9
##########                       Formal_Charge:          -0.0400004
##########                     HBond_Acceptors:                  11
##########                        HBond_Donors:                   4
##########                         Heavy_Atoms:                  28
##########                          Grid_Score:          -32.465038
##########                     Grid_vdw_energy:          -30.266697
##########                      Grid_es_energy:           -2.198341
##########           Internal_energy_repulsive:           12.201822

@<TRIPOS>MOLECULE
ZINC001574157642
 53 55 1 0 0
SMALL
USER_CHARGES


@<TRIPOS>ATOM
      1 C1          1.3602    4.9869   52.2855 C.3     1  ZINC001574157642   -0.1400
      2 C2          1.0563    4.8258   50.7946 C.3     1  ZINC001574157642   -0.0900
      3 C3          2.3081    4.3270   50.0700 C.3     1  ZINC001574157642   -0.1500
      4 C4         -0.0763    3.8138   50.6114 C.3     1  ZINC001574157642   -0.1300
      5 C5         -0.9408    4.2262   49.4182 C.3     1  ZINC001574157642    0.1300
      6 H6         -0.3102    4.6736   48.6500 H       1  ZINC001574157642    0.1100
      7 C7         -1.9881    5.2439   49.8748 C.3     1  ZINC001574157642    0.1100
      8 N8         -3.2022    4.5400   50.2950 N.pl3   1  ZINC001574157642   -0.7100
      9 C9         -3.4936    4.4035   51.6466 C.ar    1  ZINC001574157642    0.3700
     10 C10        -4.6271    3.6982   52.0471 C.ar    1  ZINC001574157642    0.0000
     11 N11        -4.9045    3.5686   53.3292 N.ar    1  ZINC001574157642   -0.3700
     12 C12        -4.1022    4.1107   54.2412 C.ar    1  ZINC001574157642    0.0800
     13 C13        -4.4138    3.9647   55.6847 C.2     1  ZINC001574157642    0.2300
     14 N14        -3.7195    4.4531   56.6935 N.2     1  ZINC001574157642   -0.2700
     15 N15        -4.3146    4.1105   57.7841 N.pl3   1  ZINC001574157642   -0.2300
     16 N16        -5.3634    3.4208   57.4985 N.2     1  ZINC001574157642   -0.0400
     17 N17        -5.4593    3.3154   56.2166 N.2     1  ZINC001574157642   -0.2600
     18 C18        -2.9692    4.8152   53.8408 C.ar    1  ZINC001574157642    0.1600
     19 N19        -2.6895    4.9402   52.5562 N.ar    1  ZINC001574157642   -0.5000
     20 N20        -1.6134    3.0453   48.8712 N.am    1  ZINC001574157642   -0.7300
     21 C21        -1.1779    2.4941   47.7210 C.2     1  ZINC001574157642    0.5200
     22 O22        -0.2301    2.9766   47.1381 O.2     1  ZINC001574157642   -0.5100
     23 C23        -1.8686    1.2783   47.1591 C.3     1  ZINC001574157642   -0.1300
     24 H24        -2.9036    1.2553   47.5004 H       1  ZINC001574157642    0.1100
     25 C25        -1.1436    0.0115   47.6291 C.3     1  ZINC001574157642   -0.1000
     26 C26        -1.9669   -1.2051   47.1986 C.3     1  ZINC001574157642   -0.1400
     27 C27        -2.3370   -1.0843   45.7482 C.2     1  ZINC001574157642    0.5200
     28 O28        -2.6991   -2.0832   45.1632 O.2     1  ZINC001574157642   -0.5500
     29 N29        -2.2893    0.0624   45.0692 N.am    1  ZINC001574157642   -0.7200
     30 C30        -1.8334    1.3284   45.6311 C.3     1  ZINC001574157642    0.1200
     31 H31         1.6615    4.0252   52.7009 H       1  ZINC001574157642    0.0400
     32 H32         2.1671    5.7079   52.4160 H       1  ZINC001574157642    0.0500
     33 H33         0.4684    5.3422   52.8018 H       1  ZINC001574157642    0.0700
     34 H34         0.7550    5.7875   50.3793 H       1  ZINC001574157642    0.0700
     35 H35         2.6094    3.3654   50.4853 H       1  ZINC001574157642    0.0500
     36 H36         2.0916    4.2123   49.0078 H       1  ZINC001574157642    0.0500
     37 H37         3.1150    5.0481   50.2005 H       1  ZINC001574157642    0.0500
     38 H38         0.3455    2.8252   50.4299 H       1  ZINC001574157642    0.0700
     39 H39        -0.6893    3.7874   51.5123 H       1  ZINC001574157642    0.0800
     40 H40        -1.5940    5.8201   50.7119 H       1  ZINC001574157642    0.0800
     41 H41        -2.2249    5.9164   49.0503 H       1  ZINC001574157642    0.0900
     42 H42        -3.8029    4.1692   49.6296 H       1  ZINC001574157642    0.4100
     43 H43        -5.2786    3.2579   51.3066 H       1  ZINC001574157642    0.1700
     44 H44        -4.0183    4.3365   58.6797 H       1  ZINC001574157642    0.4800
     45 H45        -2.3176    5.2559   54.5808 H       1  ZINC001574157642    0.1800
     46 H46        -2.3722    2.6601   49.3368 H       1  ZINC001574157642    0.4000
     47 H47        -0.1543   -0.0353   47.1739 H       1  ZINC001574157642    0.0800
     48 H48        -1.0484    0.0246   48.7148 H       1  ZINC001574157642    0.0900
     49 H49        -1.3797   -2.1111   47.3483 H       1  ZINC001574157642    0.1100
     50 H50        -2.8742   -1.2595   47.8004 H       1  ZINC001574157642    0.1000
     51 H51        -2.5781    0.0548   44.1433 H       1  ZINC001574157642    0.4000
     52 H52        -2.4787    2.1326   45.2775 H       1  ZINC001574157642    0.0800
     53 H53        -0.8115    1.5205   45.3042 H       1  ZINC001574157642    0.0700
@<TRIPOS>BOND
     1     1     2    1
     2     1    31    1
     3     1    32    1
     4     1    33    1
     5     2     3    1
     6     2     4    1
     7     2    34    1
     8     3    35    1
     9     3    36    1
    10     3    37    1
    11     4     5    1
    12     4    38    1
    13     4    39    1
    14     5     6    1
    15     5     7    1
    16     5    20    1
    17     7     8    1
    18     7    40    1
    19     7    41    1
    20     8     9    1
    21     8    42    1
    22     9    19   ar
    23     9    10   ar
    24    10    11   ar
    25    10    43    1
    26    11    12   ar
    27    12    13    1
    28    12    18   ar
    29    13    17    1
    30    13    14    2
    31    14    15    1
    32    15    16    1
    33    15    44    1
    34    16    17    2
    35    18    19   ar
    36    18    45    1
    37    20    21   am
    38    20    46    1
    39    21    22    2
    40    21    23    1
    41    23    24    1
    42    23    30    1
    43    23    25    1
    44    25    26    1
    45    25    47    1
    46    25    48    1
    47    26    27    1
    48    26    49    1
    49    26    50    1
    50    27    28    2
    51    27    29   am
    52    29    30    1
    53    29    51    1
    54    30    52    1
    55    30    53    1
@<TRIPOS>SUBSTRUCTURE
     1 ZINC001574157642        1 TEMP              0 ****  ****    0 ROOT


##########                                Name:    ZINC000462219577
##########                DOCK_Rotatable_Bonds:                   8
##########                         Heavy_Atoms:                  31
##########                    Molecular_Weight:             418.539
##########                DOCK_Rotatable_Bonds:                   8
##########                       Formal_Charge:         -0.00999914
##########                     HBond_Acceptors:                   6
##########                        HBond_Donors:                   2
##########                         Heavy_Atoms:                  31
##########                          Grid_Score:          -32.435543
##########                     Grid_vdw_energy:          -32.604885
##########                      Grid_es_energy:            0.169341
##########           Internal_energy_repulsive:           20.080643

@<TRIPOS>MOLECULE
ZINC000462219577
 61 64 1 0 0
SMALL
USER_CHARGES


@<TRIPOS>ATOM
      1 C1         -0.7836    2.7839   55.0010 C.3     1  ZINC000462219577   -0.0700
      2 C2         -1.9656    3.4674   54.3632 C.2     1  ZINC000462219577    0.0800
      3 N3         -3.1775    3.5213   54.8544 N.2     1  ZINC000462219577   -0.2900
      4 N4         -3.9799    4.2445   53.9625 N.pl3   1  ZINC000462219577   -0.3200
      5 C5         -5.3435    4.5273   54.1227 C.ar    1  ZINC000462219577    0.1500
      6 C6         -6.2417    3.4997   54.3772 C.ar    1  ZINC000462219577   -0.1100
      7 C7         -7.5847    3.7814   54.5346 C.ar    1  ZINC000462219577   -0.1000
      8 C8         -8.0349    5.0854   54.4384 C.ar    1  ZINC000462219577   -0.1200
      9 C9         -7.1428    6.1109   54.1845 C.ar    1  ZINC000462219577   -0.1000
     10 C10        -5.7977    5.8362   54.0328 C.ar    1  ZINC000462219577   -0.1300
     11 C11        -3.2059    4.6219   52.9197 C.2     1  ZINC000462219577    0.0900
     12 C12        -3.6546    5.4206   51.7232 C.3     1  ZINC000462219577   -0.0800
     13 C13        -2.6466    5.2447   50.5856 C.3     1  ZINC000462219577    0.1700
     14 H14        -1.6358    5.2397   50.9933 H       1  ZINC000462219577    0.1000
     15 C15        -2.7907    6.4005   49.5934 C.3     1  ZINC000462219577   -0.1600
     16 N16        -2.9024    3.9765   49.8983 N.am    1  ZINC000462219577   -0.7400
     17 C17        -1.8870    3.1235   49.6580 C.2     1  ZINC000462219577    0.7100
     18 O18        -0.7589    3.4060   50.0128 O.2     1  ZINC000462219577   -0.5800
     19 N19        -2.1220    1.9574   49.0243 N.am    1  ZINC000462219577   -0.7400
     20 C20        -1.0186    1.0295   48.7646 C.3     1  ZINC000462219577    0.1600
     21 H21        -0.4087    0.9278   49.6623 H       1  ZINC000462219577    0.1000
     22 C22        -1.5820   -0.3392   48.3702 C.3     1  ZINC000462219577   -0.1700
     23 C23        -2.3734   -0.2003   47.0670 C.3     1  ZINC000462219577    0.0700
     24 O24        -1.5229    0.3316   46.0493 O.3     1  ZINC000462219577   -0.3700
     25 C25        -1.0044    1.6306   46.3422 C.3     1  ZINC000462219577    0.1400
     26 H26        -1.8299    2.3269   46.4895 H       1  ZINC000462219577    0.0600
     27 C27        -0.1490    2.1010   45.1940 C.ar    1  ZINC000462219577   -0.0900
     28 C28         0.5283    3.3027   45.2836 C.ar    1  ZINC000462219577   -0.0900
     29 C29         1.3128    3.7341   44.2304 C.ar    1  ZINC000462219577   -0.1200
     30 C30         1.4202    2.9637   43.0877 C.ar    1  ZINC000462219577   -0.1200
     31 C31         0.7435    1.7615   42.9984 C.ar    1  ZINC000462219577   -0.1200
     32 C32        -0.0375    1.3281   44.0534 C.ar    1  ZINC000462219577   -0.1100
     33 C33        -0.1567    1.5664   47.6177 C.3     1  ZINC000462219577   -0.1500
     34 C34        -1.9549    4.1589   53.1468 C.2     1  ZINC000462219577   -0.2600
     35 H35        -0.2639    3.4881   55.6508 H       1  ZINC000462219577    0.0800
     36 H36        -1.1294    1.9338   55.5892 H       1  ZINC000462219577    0.0700
     37 H37        -0.1028    2.4355   54.2245 H       1  ZINC000462219577    0.0800
     38 H38        -5.8908    2.4810   54.4518 H       1  ZINC000462219577    0.1300
     39 H39        -8.2839    2.9826   54.7326 H       1  ZINC000462219577    0.1300
     40 H40        -9.0856    5.3031   54.5614 H       1  ZINC000462219577    0.1300
     41 H41        -7.4974    7.1281   54.1092 H       1  ZINC000462219577    0.1300
     42 H42        -5.1013    6.6376   53.8346 H       1  ZINC000462219577    0.1300
     43 H43        -4.6340    5.0696   51.3984 H       1  ZINC000462219577    0.0900
     44 H44        -3.7176    6.4749   51.9929 H       1  ZINC000462219577    0.1100
     45 H45        -3.8015    6.4056   49.1857 H       1  ZINC000462219577    0.0600
     46 H46        -2.6003    7.3441   50.1047 H       1  ZINC000462219577    0.0700
     47 H47        -2.0727    6.2751   48.7829 H       1  ZINC000462219577    0.0700
     48 H48        -3.8026    3.7506   49.6163 H       1  ZINC000462219577    0.3900
     49 H49        -3.0219    1.7326   48.7402 H       1  ZINC000462219577    0.3900
     50 H50        -0.7621   -1.0427   48.2252 H       1  ZINC000462219577    0.0800
     51 H51        -2.2404   -0.7032   49.1590 H       1  ZINC000462219577    0.0800
     52 H52        -2.7409   -1.1791   46.7588 H       1  ZINC000462219577    0.1000
     53 H53        -3.2169    0.4720   47.2238 H       1  ZINC000462219577    0.0500
     54 H54         0.4444    3.9046   46.1764 H       1  ZINC000462219577    0.1300
     55 H55         1.8416    4.6732   44.3001 H       1  ZINC000462219577    0.1200
     56 H56         2.0326    3.3010   42.2645 H       1  ZINC000462219577    0.1200
     57 H57         0.8273    1.1599   42.1055 H       1  ZINC000462219577    0.1200
     58 H58        -0.5662    0.3890   43.9836 H       1  ZINC000462219577    0.1200
     59 H59         0.2030    2.5648   47.8667 H       1  ZINC000462219577    0.0800
     60 H60         0.6922    0.9016   47.4578 H       1  ZINC000462219577    0.0900
     61 H61        -1.1006    4.2931   52.4998 H       1  ZINC000462219577    0.1500
@<TRIPOS>BOND
     1     1     2    1
     2     1    35    1
     3     1    36    1
     4     1    37    1
     5     2    34    1
     6     2     3    2
     7     3     4    1
     8     4     5    1
     9     4    11    1
    10     5    10   ar
    11     5     6   ar
    12     6     7   ar
    13     6    38    1
    14     7     8   ar
    15     7    39    1
    16     8     9   ar
    17     8    40    1
    18     9    10   ar
    19     9    41    1
    20    10    42    1
    21    11    12    1
    22    11    34    2
    23    12    13    1
    24    12    43    1
    25    12    44    1
    26    13    14    1
    27    13    15    1
    28    13    16    1
    29    15    45    1
    30    15    46    1
    31    15    47    1
    32    16    17   am
    33    16    48    1
    34    17    18    2
    35    17    19   am
    36    19    20    1
    37    19    49    1
    38    20    21    1
    39    20    33    1
    40    20    22    1
    41    22    23    1
    42    22    50    1
    43    22    51    1
    44    23    24    1
    45    23    52    1
    46    23    53    1
    47    24    25    1
    48    25    26    1
    49    25    27    1
    50    25    33    1
    51    27    32   ar
    52    27    28   ar
    53    28    29   ar
    54    28    54    1
    55    29    30   ar
    56    29    55    1
    57    30    31   ar
    58    30    56    1
    59    31    32   ar
    60    31    57    1
    61    32    58    1
    62    33    59    1
    63    33    60    1
    64    34    61    1
@<TRIPOS>SUBSTRUCTURE
     1 ZINC000462219577        1 TEMP              0 ****  ****    0 ROOT


##########                                Name:    ZINC000031496632
##########                DOCK_Rotatable_Bonds:                   8
##########                         Heavy_Atoms:                  30
##########                    Molecular_Weight:             423.539
##########                DOCK_Rotatable_Bonds:                   8
##########                       Formal_Charge:          -0.0100009
##########                     HBond_Acceptors:                   8
##########                        HBond_Donors:                   1
##########                         Heavy_Atoms:                  30
##########                          Grid_Score:          -32.435444
##########                     Grid_vdw_energy:          -31.278849
##########                      Grid_es_energy:           -1.156597
##########           Internal_energy_repulsive:            9.347967

@<TRIPOS>MOLECULE
ZINC000031496632
 55 58 1 0 0
SMALL
USER_CHARGES


@<TRIPOS>ATOM
      1 C1         -9.1338    1.3919   64.9728 C.3     1  ZINC000031496632   -0.1600
      2 C2         -8.2866    1.0100   63.7574 C.3     1  ZINC000031496632    0.1600
      3 C3         -7.0279    0.2756   64.2236 C.3     1  ZINC000031496632   -0.1600
      4 N4         -9.0638    0.1356   62.8757 N.pl3   1  ZINC000031496632   -0.3900
      5 N5         -9.8846   -0.9155   63.2959 N.2     1  ZINC000031496632   -0.2300
      6 C6        -10.4332   -1.4942   62.2663 C.2     1  ZINC000031496632    0.0800
      7 C7         -9.9653   -0.8046   61.0690 C.ar    1  ZINC000031496632   -0.2100
      8 C8        -10.1986   -0.9635   59.6982 C.ar    1  ZINC000031496632    0.0100
      9 C9         -9.5610   -0.0965   58.8246 C.ar    1  ZINC000031496632    0.0500
     10 N10        -9.7601   -0.2116   57.4427 N.am    1  ZINC000031496632   -0.6600
     11 C11       -10.9851   -0.0082   56.9190 C.2     1  ZINC000031496632    0.5500
     12 O12       -11.9179    0.2754   57.6462 O.2     1  ZINC000031496632   -0.4900
     13 C13       -11.1945   -0.1292   55.4653 C.ar    1  ZINC000031496632   -0.1300
     14 C14       -11.3355    1.0160   54.6776 C.ar    1  ZINC000031496632   -0.0600
     15 C15       -11.5312    0.8960   53.3191 C.ar    1  ZINC000031496632   -0.1400
     16 C16       -11.5896   -0.3561   52.7273 C.ar    1  ZINC000031496632   -0.0600
     17 C17       -11.4528   -1.4969   53.4908 C.ar    1  ZINC000031496632   -0.1500
     18 C18       -11.2480   -1.3966   54.8619 C.ar    1  ZINC000031496632   -0.0600
     19 S19       -11.0721   -2.8516   55.8401 S.3     1  ZINC000031496632    0.0900
     20 C20       -12.6269   -3.7362   55.5388 C.3     1  ZINC000031496632   -0.2000
     21 C21       -13.7882   -2.8562   55.9237 C.2     1  ZINC000031496632    0.5500
     22 O22       -14.3169   -2.1511   55.0905 O.2     1  ZINC000031496632   -0.5200
     23 N23       -14.2390   -2.8526   57.1938 N.am    1  ZINC000031496632   -0.6200
     24 C24       -15.3629   -2.0527   57.7019 C.3     1  ZINC000031496632    0.1000
     25 C25       -15.4952   -2.3540   59.2096 C.3     1  ZINC000031496632   -0.1300
     26 C26       -14.0830   -2.8756   59.5849 C.3     1  ZINC000031496632   -0.1300
     27 C27       -13.6907   -3.6552   58.3023 C.3     1  ZINC000031496632    0.1000
     28 C28        -8.7202    0.8914   59.3347 C.ar    1  ZINC000031496632    0.1600
     29 N29        -8.5172    1.0199   60.6272 N.ar    1  ZINC000031496632   -0.4900
     30 C30        -9.1062    0.2220   61.5090 C.ar    1  ZINC000031496632    0.3000
     31 H31        -8.5556    2.0425   65.6290 H       1  ZINC000031496632    0.0800
     32 H32       -10.0305    1.9151   64.6408 H       1  ZINC000031496632    0.0600
     33 H33        -9.4191    0.4902   65.5148 H       1  ZINC000031496632    0.0700
     34 H34        -8.0013    1.9118   63.2156 H       1  ZINC000031496632    0.1100
     35 H35        -6.4497    0.9262   64.8798 H       1  ZINC000031496632    0.0800
     36 H36        -7.3131   -0.6262   64.7656 H       1  ZINC000031496632    0.0700
     37 H37        -6.4243    0.0035   63.3579 H       1  ZINC000031496632    0.0600
     38 H38       -11.1120   -2.3339   62.2938 H       1  ZINC000031496632    0.2000
     39 H39       -10.8553   -1.7388   59.3319 H       1  ZINC000031496632    0.1500
     40 H40        -9.0162   -0.4377   56.8627 H       1  ZINC000031496632    0.4100
     41 H41       -11.2916    1.9942   55.1331 H       1  ZINC000031496632    0.1300
     42 H42       -11.6399    1.7825   52.7118 H       1  ZINC000031496632    0.1300
     43 H43       -11.7437   -0.4390   51.6616 H       1  ZINC000031496632    0.1300
     44 H44       -11.5002   -2.4687   53.0220 H       1  ZINC000031496632    0.1300
     45 H45       -12.7000   -3.9926   54.4819 H       1  ZINC000031496632    0.1100
     46 H46       -12.6480   -4.6476   56.1362 H       1  ZINC000031496632    0.1100
     47 H47       -15.1606   -0.9921   57.5521 H       1  ZINC000031496632    0.0700
     48 H48       -16.2810   -2.3335   57.1857 H       1  ZINC000031496632    0.0700
     49 H49       -15.7312   -1.4463   59.7651 H       1  ZINC000031496632    0.0900
     50 H50       -16.2490   -3.1215   59.3848 H       1  ZINC000031496632    0.0800
     51 H51       -13.3971   -2.0486   59.7687 H       1  ZINC000031496632    0.0800
     52 H52       -14.1288   -3.5420   60.4463 H       1  ZINC000031496632    0.0900
     53 H53       -14.1346   -4.6506   58.3127 H       1  ZINC000031496632    0.0700
     54 H54       -12.6062   -3.7233   58.2166 H       1  ZINC000031496632    0.0800
     55 H55        -8.2242    1.5661   58.6527 H       1  ZINC000031496632    0.1700
@<TRIPOS>BOND
     1     1     2    1
     2     1    31    1
     3     1    32    1
     4     1    33    1
     5     2     3    1
     6     2     4    1
     7     2    34    1
     8     3    35    1
     9     3    36    1
    10     3    37    1
    11     4    30    1
    12     4     5    1
    13     5     6    2
    14     6     7    1
    15     6    38    1
    16     7    30   ar
    17     7     8   ar
    18     8     9   ar
    19     8    39    1
    20     9    10    1
    21     9    28   ar
    22    10    11   am
    23    10    40    1
    24    11    12    2
    25    11    13    1
    26    13    18   ar
    27    13    14   ar
    28    14    15   ar
    29    14    41    1
    30    15    16   ar
    31    15    42    1
    32    16    17   ar
    33    16    43    1
    34    17    18   ar
    35    17    44    1
    36    18    19    1
    37    19    20    1
    38    20    21    1
    39    20    45    1
    40    20    46    1
    41    21    22    2
    42    21    23   am
    43    23    27    1
    44    23    24    1
    45    24    25    1
    46    24    47    1
    47    24    48    1
    48    25    26    1
    49    25    49    1
    50    25    50    1
    51    26    27    1
    52    26    51    1
    53    26    52    1
    54    27    53    1
    55    27    54    1
    56    28    29   ar
    57    28    55    1
    58    29    30   ar
@<TRIPOS>SUBSTRUCTURE
     1 ZINC000031496632        1 TEMP              0 ****  ****    0 ROOT


##########                                Name:    ZINC000269356812
##########                DOCK_Rotatable_Bonds:                  10
##########                         Heavy_Atoms:                  25
##########                    Molecular_Weight:             387.431
##########                DOCK_Rotatable_Bonds:                  10
##########                       Formal_Charge:          0.00999978
##########                     HBond_Acceptors:                  10
##########                        HBond_Donors:                   3
##########                         Heavy_Atoms:                  25
##########                          Grid_Score:          -32.414768
##########                     Grid_vdw_energy:          -28.404816
##########                      Grid_es_energy:           -4.009953
##########           Internal_energy_repulsive:           11.036778

@<TRIPOS>MOLECULE
ZINC000269356812
 40 41 1 0 0
SMALL
USER_CHARGES


@<TRIPOS>ATOM
      1 C1         -6.7544    2.5242   54.8360 C.3     1  ZINC000269356812   -0.1400
      2 C2         -5.6697    2.9406   55.8314 C.3     1  ZINC000269356812    0.2000
      3 O3         -4.7687    1.8508   56.0376 O.3     1  ZINC000269356812   -0.5400
      4 C4         -4.9001    4.1402   55.2748 C.3     1  ZINC000269356812    0.0900
      5 N5         -4.3152    3.7866   53.9791 N.am    1  ZINC000269356812   -0.6900
      6 C6         -2.9845    3.6047   53.8675 C.2     1  ZINC000269356812    0.5100
      7 O7         -2.2705    3.7353   54.8402 O.2     1  ZINC000269356812   -0.5100
      8 C8         -2.3885    3.2426   52.5471 C.2     1  ZINC000269356812    0.5100
      9 O9         -1.1929    3.0550   52.4518 O.2     1  ZINC000269356812   -0.4900
     10 N10        -3.1779    3.1242   51.4612 N.am    1  ZINC000269356812   -0.6400
     11 C11        -2.6195    2.7848   50.2239 C.ar    1  ZINC000269356812    0.0900
     12 C12        -1.6555    3.6037   49.6362 C.ar    1  ZINC000269356812   -0.0600
     13 C13        -1.1305    3.2295   48.4134 C.ar    1  ZINC000269356812   -0.1200
     14 C14        -1.5781    2.0565   47.8133 C.ar    1  ZINC000269356812    0.1000
     15 S15        -0.9166    1.5679   46.2550 S.3     1  ZINC000269356812   -0.0600
     16 C16        -2.1142    0.3370   45.6711 C.3     1  ZINC000269356812    0.2900
     17 F17        -1.9412    0.1329   44.2979 F       1  ZINC000269356812   -0.1700
     18 F18        -1.9125   -0.8691   46.3508 F       1  ZINC000269356812   -0.1700
     19 N19        -2.4953    1.3028   48.4006 N.ar    1  ZINC000269356812   -0.4600
     20 C20        -3.0137    1.6266   49.5695 C.ar    1  ZINC000269356812    0.1100
     21 C21        -6.3093    3.3185   57.1425 C.2     1  ZINC000269356812   -0.2300
     22 C22        -5.8302    4.2210   58.0000 C.2     1  ZINC000269356812   -0.1100
     23 C23        -6.5912    4.4020   59.1420 C.2     1  ZINC000269356812   -0.1400
     24 C24        -7.6884    3.6468   59.2119 C.2     1  ZINC000269356812   -0.2000
     25 S25        -7.8060    2.6428   57.7724 S.3     1  ZINC000269356812    0.1100
     26 H26        -7.3026    1.6695   55.2325 H       1  ZINC000269356812    0.0800
     27 H27        -7.4417    3.3554   54.6787 H       1  ZINC000269356812    0.0800
     28 H28        -6.2918    2.2507   53.8877 H       1  ZINC000269356812    0.0700
     29 H29        -4.2754    1.5932   55.2468 H       1  ZINC000269356812    0.3800
     30 H30        -5.5811    4.9819   55.1486 H       1  ZINC000269356812    0.0900
     31 H31        -4.1062    4.4162   55.9687 H       1  ZINC000269356812    0.0900
     32 H32        -4.8857    3.6834   53.2013 H       1  ZINC000269356812    0.4200
     33 H33        -4.1333    3.2742   51.5374 H       1  ZINC000269356812    0.4300
     34 H34        -1.3271    4.5091   50.1249 H       1  ZINC000269356812    0.1600
     35 H35        -0.3826    3.8403   47.9296 H       1  ZINC000269356812    0.1500
     36 H36        -3.1258    0.6960   45.8604 H       1  ZINC000269356812    0.1500
     37 H37        -3.7599    0.9875   50.0181 H       1  ZINC000269356812    0.1700
     38 H38        -4.9174    4.7685   57.8174 H       1  ZINC000269356812    0.1500
     39 H39        -6.3171    5.1017   59.9178 H       1  ZINC000269356812    0.1400
     40 H40        -8.3980    3.6534   60.0261 H       1  ZINC000269356812    0.1700
@<TRIPOS>BOND
     1     1     2    1
     2     1    26    1
     3     1    27    1
     4     1    28    1
     5     2     3    1
     6     2     4    1
     7     2    21    1
     8     3    29    1
     9     4     5    1
    10     4    30    1
    11     4    31    1
    12     5     6   am
    13     5    32    1
    14     6     7    2
    15     6     8    1
    16     8     9    2
    17     8    10   am
    18    10    11    1
    19    10    33    1
    20    11    20   ar
    21    11    12   ar
    22    12    13   ar
    23    12    34    1
    24    13    14   ar
    25    13    35    1
    26    14    15    1
    27    14    19   ar
    28    15    16    1
    29    16    17    1
    30    16    18    1
    31    16    36    1
    32    19    20   ar
    33    20    37    1
    34    21    25    1
    35    21    22    2
    36    22    23    1
    37    22    38    1
    38    23    24    2
    39    23    39    1
    40    24    25    1
    41    24    40    1
@<TRIPOS>SUBSTRUCTURE
     1 ZINC000269356812        1 TEMP              0 ****  ****    0 ROOT


##########                                Name:    ZINC000504243286
##########                DOCK_Rotatable_Bonds:                   7
##########                         Heavy_Atoms:                  29
##########                    Molecular_Weight:             408.337
##########                DOCK_Rotatable_Bonds:                   7
##########                       Formal_Charge:           0.0299994
##########                     HBond_Acceptors:                  11
##########                        HBond_Donors:                   3
##########                         Heavy_Atoms:                  29
##########                          Grid_Score:          -32.401917
##########                     Grid_vdw_energy:          -32.145962
##########                      Grid_es_energy:           -0.255956
##########           Internal_energy_repulsive:            9.129580

@<TRIPOS>MOLECULE
ZINC000504243286
 44 46 1 0 0
SMALL
USER_CHARGES


@<TRIPOS>ATOM
      1 O1         -3.3069    4.4809   50.1466 O.2     1  ZINC000504243286   -0.5200
      2 C2         -3.1291    3.6816   51.0414 C.2     1  ZINC000504243286    0.5200
      3 C3         -3.7250    3.9301   52.4031 C.3     1  ZINC000504243286   -0.1600
      4 C4         -5.2220    3.6157   52.3698 C.3     1  ZINC000504243286    0.1300
      5 N5         -5.7199    3.4654   53.7394 N.pl3   1  ZINC000504243286   -0.7200
      6 C6         -6.9433    2.8330   53.9722 C.ar    1  ZINC000504243286    0.3100
      7 C7         -7.9071    2.7925   52.9729 C.ar    1  ZINC000504243286   -0.1900
      8 C8         -9.1158    2.1659   53.2063 C.ar    1  ZINC000504243286    0.0200
      9 C9         -9.3667    1.5793   54.4330 C.ar    1  ZINC000504243286   -0.2400
     10 C10       -10.6862    0.8960   54.6838 C.3     1  ZINC000504243286    0.5200
     11 F11       -10.5870   -0.4539   54.3302 F       1  ZINC000504243286   -0.1700
     12 F12       -11.0150    1.0000   56.0396 F       1  ZINC000504243286   -0.1700
     13 F13       -11.6817    1.5077   53.9143 F       1  ZINC000504243286   -0.1700
     14 C14        -8.4091    1.6178   55.4302 C.ar    1  ZINC000504243286    0.0400
     15 C15        -7.1967    2.2380   55.2017 C.ar    1  ZINC000504243286   -0.1200
     16 N16        -6.1726    2.2787   56.2695 N.pl3   1  ZINC000504243286    0.0400
     17 O17        -4.9934    2.1632   55.9871 O.2     1  ZINC000504243286   -0.1700
     18 O18        -6.5088    2.4277   57.4306 O.2     1  ZINC000504243286   -0.1400
     19 N19        -2.4034    2.5685   50.8163 N.am    1  ZINC000504243286   -0.6700
     20 C20        -1.8495    2.3375   49.5506 C.ar    1  ZINC000504243286    0.1200
     21 C21        -0.7008    3.0116   49.1583 C.ar    1  ZINC000504243286   -0.1000
     22 C22        -0.1528    2.7861   47.9131 C.ar    1  ZINC000504243286   -0.1200
     23 C23        -0.7485    1.8797   47.0383 C.ar    1  ZINC000504243286    0.1300
     24 N24        -0.3888    1.4882   45.7464 N.am    1  ZINC000504243286   -0.6600
     25 C25        -1.2362    0.5787   45.2364 C.2     1  ZINC000504243286    0.5300
     26 O26        -1.1673    0.0654   44.1396 O.2     1  ZINC000504243286   -0.5000
     27 C27        -2.2929    0.3146   46.2878 C.3     1  ZINC000504243286   -0.1200
     28 C28        -1.8979    1.2098   47.4397 C.ar    1  ZINC000504243286   -0.1200
     29 C29        -2.4441    1.4280   48.6834 C.ar    1  ZINC000504243286   -0.0600
     30 H30        -3.2354    3.2894   53.1364 H       1  ZINC000504243286    0.1100
     31 H31        -3.5792    4.9747   52.6783 H       1  ZINC000504243286    0.1100
     32 H32        -5.7534    4.4300   51.8773 H       1  ZINC000504243286    0.0800
     33 H33        -5.3864    2.6892   51.8197 H       1  ZINC000504243286    0.0900
     34 H34        -5.2001    3.8051   54.4844 H       1  ZINC000504243286    0.4100
     35 H35        -7.7120    3.2507   52.0147 H       1  ZINC000504243286    0.1600
     36 H36        -9.8659    2.1343   52.4299 H       1  ZINC000504243286    0.1600
     37 H37        -8.6082    1.1587   56.3873 H       1  ZINC000504243286    0.1600
     38 H38        -2.2646    1.9272   51.5308 H       1  ZINC000504243286    0.4200
     39 H39        -0.2345    3.7159   49.8312 H       1  ZINC000504243286    0.1400
     40 H40         0.7408    3.3140   47.6147 H       1  ZINC000504243286    0.1300
     41 H41         0.3839    1.8331   45.2722 H       1  ZINC000504243286    0.4100
     42 H42        -3.2799    0.5867   45.9137 H       1  ZINC000504243286    0.1300
     43 H43        -2.2743   -0.7315   46.5933 H       1  ZINC000504243286    0.1300
     44 H44        -3.3349    0.8966   48.9841 H       1  ZINC000504243286    0.1500
@<TRIPOS>BOND
     1     1     2    2
     2     2     3    1
     3     2    19   am
     4     3     4    1
     5     3    30    1
     6     3    31    1
     7     4     5    1
     8     4    32    1
     9     4    33    1
    10     5     6    1
    11     5    34    1
    12     6    15   ar
    13     6     7   ar
    14     7     8   ar
    15     7    35    1
    16     8     9   ar
    17     8    36    1
    18     9    10    1
    19     9    14   ar
    20    10    11    1
    21    10    12    1
    22    10    13    1
    23    14    15   ar
    24    14    37    1
    25    15    16    1
    26    16    17    2
    27    16    18    2
    28    19    20    1
    29    19    38    1
    30    20    29   ar
    31    20    21   ar
    32    21    22   ar
    33    21    39    1
    34    22    23   ar
    35    22    40    1
    36    23    28   ar
    37    23    24    1
    38    24    25   am
    39    24    41    1
    40    25    26    2
    41    25    27    1
    42    27    28    1
    43    27    42    1
    44    27    43    1
    45    28    29   ar
    46    29    44    1
@<TRIPOS>SUBSTRUCTURE
     1 ZINC000504243286        1 TEMP              0 ****  ****    0 ROOT


##########                                Name:    ZINC000011972961
##########                DOCK_Rotatable_Bonds:                   6
##########                         Heavy_Atoms:                  28
##########                    Molecular_Weight:             397.501
##########                DOCK_Rotatable_Bonds:                   6
##########                       Formal_Charge:                   0
##########                     HBond_Acceptors:                   8
##########                        HBond_Donors:                   1
##########                         Heavy_Atoms:                  28
##########                          Grid_Score:          -32.360161
##########                     Grid_vdw_energy:          -32.360161
##########                      Grid_es_energy:            0.000000
##########           Internal_energy_repulsive:           25.350590

@<TRIPOS>MOLECULE
ZINC000011972961
 51 54 1 0 0
SMALL
USER_CHARGES


@<TRIPOS>ATOM
      1 C1        -10.5258   -0.1234   58.5079 C.3        P9"      0.0000
      2 C2        -11.4725   -1.0019   59.2845 C.2        P9"      0.0000
      3 C3        -11.7238   -0.8068   60.5852 C.2        P9"      0.0000
      4 C4        -11.1266    0.2580   61.4006 C.2        P9"      0.0000
      5 O5        -11.6315    1.3649   61.4202 O.2        P9"      0.0000
      6 N6        -10.0193    0.0094   62.1275 N.am       P9"      0.0000
      7 C7         -9.4115   -1.3235   62.1039 C.3        P9"      0.0000
      8 C8         -9.4233    1.0718   62.9412 C.3        P9"      0.0000
      9 H9        -10.1712    1.8242   63.1917 H          P9"      0.0000
     10 C10        -8.7962    0.4819   64.2278 C.3        P9"      0.0000
     11 C11        -7.3010    0.3654   63.8362 C.3        P9"      0.0000
     12 O12        -7.0716    1.5405   63.0293 O.3        P9"      0.0000
     13 C13        -8.2362    1.7171   62.2003 C.3        P9"      0.0000
     14 S14       -12.8660   -1.9991   61.1807 S.3        P9"      0.0000
     15 C15       -12.9767   -2.7564   59.5975 C.ar       P9"      0.0000
     16 N16       -13.6849   -3.8072   59.1687 N.ar       P9"      0.0000
     17 C17       -13.6150   -4.2077   57.9198 C.ar       P9"      0.0000
     18 N18       -12.8510   -3.6030   57.0285 N.ar       P9"      0.0000
     19 C19       -12.1118   -2.5537   57.3547 C.ar       P9"      0.0000
     20 N20       -11.3190   -1.9338   56.4103 N.pl3      P9"      0.0000
     21 C21       -11.6170   -2.0933   54.9848 C.3        P9"      0.0000
     22 C22       -10.7597   -1.1480   54.1835 C.ar       P9"      0.0000
     23 N23       -10.3736   -0.0062   54.7182 N.ar       P9"      0.0000
     24 C24        -9.6227    0.8514   54.0547 C.ar       P9"      0.0000
     25 C25        -9.2087    2.1428   54.7120 C.3        P9"      0.0000
     26 C26        -9.2110    0.5795   52.7640 C.ar       P9"      0.0000
     27 C27        -9.5974   -0.6116   52.1683 C.ar       P9"      0.0000
     28 C28       -10.3826   -1.4903   52.8985 C.ar       P9"      0.0000
     29 C29       -12.1522   -2.0721   58.6937 C.ar       P9"      0.0000
     30 H30       -11.0888    0.4687   57.7863 H          P9"      0.0000
     31 H31       -10.0018    0.5420   59.1940 H          P9"      0.0000
     32 H32        -9.8020   -0.7456   57.9813 H          P9"      0.0000
     33 H33        -9.0289   -1.5307   61.1046 H          P9"      0.0000
     34 H34        -8.5923   -1.3619   62.8219 H          P9"      0.0000
     35 H35       -10.1613   -2.0694   62.3678 H          P9"      0.0000
     36 H36        -8.9258    1.1610   65.0705 H          P9"      0.0000
     37 H37        -9.2172   -0.4984   64.4516 H          P9"      0.0000
     38 H38        -6.6694    0.3804   64.7244 H          P9"      0.0000
     39 H39        -7.1259   -0.5397   63.2546 H          P9"      0.0000
     40 H40        -8.0862    1.2233   61.2403 H          P9"      0.0000
     41 H41        -8.4245    2.7798   62.0472 H          P9"      0.0000
     42 H42       -14.2016   -5.0605   57.6116 H          P9"      0.0000
     43 H43       -10.5644   -1.3924   56.6904 H          P9"      0.0000
     44 H44       -11.4072   -3.1193   54.6823 H          P9"      0.0000
     45 H45       -12.6689   -1.8699   54.8064 H          P9"      0.0000
     46 H46        -8.2640    1.9972   55.2359 H          P9"      0.0000
     47 H47        -9.0875    2.9147   53.9521 H          P9"      0.0000
     48 H48        -9.9751    2.4503   55.4235 H          P9"      0.0000
     49 H49        -8.5962    1.2858   52.2259 H          P9"      0.0000
     50 H50        -9.2906   -0.8509   51.1607 H          P9"      0.0000
     51 H51       -10.7017   -2.4271   52.4662 H          P9"      0.0000
@<TRIPOS>BOND
     1     1     2    1
     2     1    30    1
     3     1    31    1
     4     1    32    1
     5     2    29    1
     6     2     3    2
     7     3     4    1
     8     3    14    1
     9     4     5    2
    10     4     6   am
    11     6     7    1
    12     6     8    1
    13     7    33    1
    14     7    34    1
    15     7    35    1
    16     8     9    1
    17     8    13    1
    18     8    10    1
    19    10    11    1
    20    10    36    1
    21    10    37    1
    22    11    12    1
    23    11    38    1
    24    11    39    1
    25    12    13    1
    26    13    40    1
    27    13    41    1
    28    14    15    1
    29    15    29   ar
    30    15    16   ar
    31    16    17   ar
    32    17    18   ar
    33    17    42    1
    34    18    19   ar
    35    19    20    1
    36    19    29   ar
    37    20    21    1
    38    20    43    1
    39    21    22    1
    40    21    44    1
    41    21    45    1
    42    22    28   ar
    43    22    23   ar
    44    23    24   ar
    45    24    25    1
    46    24    26   ar
    47    25    46    1
    48    25    47    1
    49    25    48    1
    50    26    27   ar
    51    26    49    1
    52    27    28   ar
    53    27    50    1
    54    28    51    1
@<TRIPOS>SUBSTRUCTURE
     1 P9"        1 TEMP              0 ****  ****    0 ROOT


##########                                Name:    ZINC000859496582
##########                DOCK_Rotatable_Bonds:                  10
##########                         Heavy_Atoms:                  26
##########                    Molecular_Weight:             361.438
##########                DOCK_Rotatable_Bonds:                  10
##########                       Formal_Charge:           0.0100006
##########                     HBond_Acceptors:                   6
##########                        HBond_Donors:                   0
##########                         Heavy_Atoms:                  26
##########                          Grid_Score:          -32.345173
##########                     Grid_vdw_energy:          -32.309364
##########                      Grid_es_energy:           -0.035810
##########           Internal_energy_repulsive:           13.369768

@<TRIPOS>MOLECULE
ZINC000859496582
 53 54 1 0 0
SMALL
USER_CHARGES


@<TRIPOS>ATOM
      1 C1         -8.0573    1.5175   52.5936 C.3     1  ZINC000859496582    0.0300
      2 O2         -8.7873    0.3699   52.0850 O.3     1  ZINC000859496582   -0.3600
      3 C3         -9.7948   -0.0950   52.8403 C.2     1  ZINC000859496582    0.4600
      4 O4        -10.0113    0.3918   53.9248 O.2     1  ZINC000859496582   -0.5100
      5 C5        -10.6559   -1.2241   52.3358 C.3     1  ZINC000859496582   -0.1100
      6 C6        -10.7165   -2.3302   53.3912 C.3     1  ZINC000859496582   -0.1100
      7 C7        -11.9540   -2.1306   54.2686 C.3     1  ZINC000859496582   -0.1200
      8 C8        -12.0375   -3.2602   55.2972 C.3     1  ZINC000859496582    0.0700
      9 O9        -11.3133   -2.8776   56.4961 O.3     1  ZINC000859496582   -0.3500
     10 C10       -12.0104   -2.2453   57.4532 C.2     1  ZINC000859496582    0.4700
     11 O11       -13.1671   -1.9520   57.2643 O.2     1  ZINC000859496582   -0.5000
     12 C12       -11.3500   -1.9011   58.7635 C.3     1  ZINC000859496582   -0.1000
     13 H13       -10.5927   -2.6495   58.9969 H       1  ZINC000859496582    0.1200
     14 C14       -12.4021   -1.8754   59.8745 C.3     1  ZINC000859496582   -0.1100
     15 C15       -11.7275   -1.5583   61.2111 C.3     1  ZINC000859496582   -0.1300
     16 C16       -11.0732   -0.1754   61.1327 C.3     1  ZINC000859496582    0.1100
     17 N17       -10.1663   -0.1461   59.9771 N.am    1  ZINC000859496582   -0.6100
     18 C18        -8.8774    0.2188   60.1249 C.2     1  ZINC000859496582    0.5700
     19 O19        -8.1371    0.2390   59.1610 O.2     1  ZINC000859496582   -0.5300
     20 C20        -8.3638    0.5946   61.4594 C.ar    1  ZINC000859496582   -0.1400
     21 C21        -8.3837    1.9291   61.8679 C.ar    1  ZINC000859496582   -0.0900
     22 C22        -7.9033    2.2729   63.1145 C.ar    1  ZINC000859496582   -0.1200
     23 C23        -7.4022    1.2983   63.9591 C.ar    1  ZINC000859496582   -0.0600
     24 C24        -6.8787    1.6813   65.3194 C.3     1  ZINC000859496582   -0.1200
     25 C25        -7.3800   -0.0265   63.5606 C.ar    1  ZINC000859496582   -0.1200
     26 C26        -7.8622   -0.3844   62.3185 C.ar    1  ZINC000859496582   -0.0600
     27 C27       -10.6907   -0.5224   58.6572 C.3     1  ZINC000859496582    0.1100
     28 H28        -7.6105    1.2666   53.5556 H       1  ZINC000859496582    0.0600
     29 H29        -7.2723    1.7903   51.8883 H       1  ZINC000859496582    0.1000
     30 H30        -8.7413    2.3569   52.7184 H       1  ZINC000859496582    0.0600
     31 H31       -11.6620   -0.8539   52.1393 H       1  ZINC000859496582    0.1100
     32 H32       -10.2294   -1.6232   51.4154 H       1  ZINC000859496582    0.1100
     33 H33       -10.7735   -3.3004   52.8979 H       1  ZINC000859496582    0.0800
     34 H34        -9.8211   -2.2899   54.0115 H       1  ZINC000859496582    0.0800
     35 H35       -11.8827   -1.1735   54.7851 H       1  ZINC000859496582    0.0800
     36 H36       -12.8475   -2.1409   53.6443 H       1  ZINC000859496582    0.0800
     37 H37       -13.0817   -3.4473   55.5476 H       1  ZINC000859496582    0.0700
     38 H38       -11.5963   -4.1652   54.8794 H       1  ZINC000859496582    0.0700
     39 H39       -13.1461   -1.1102   59.6526 H       1  ZINC000859496582    0.0800
     40 H40       -12.8896   -2.8484   59.9356 H       1  ZINC000859496582    0.0800
     41 H41       -12.4738   -1.5633   62.0055 H       1  ZINC000859496582    0.0900
     42 H42       -10.9663   -2.3095   61.4217 H       1  ZINC000859496582    0.0700
     43 H43       -11.8430    0.5868   61.0126 H       1  ZINC000859496582    0.0700
     44 H44       -10.5081    0.0137   62.0455 H       1  ZINC000859496582    0.1000
     45 H45        -8.7739    2.6909   61.2092 H       1  ZINC000859496582    0.1300
     46 H46        -7.9181    3.3052   63.4318 H       1  ZINC000859496582    0.1300
     47 H47        -7.6897    1.6375   66.0463 H       1  ZINC000859496582    0.0800
     48 H48        -6.0897    0.9891   65.6132 H       1  ZINC000859496582    0.0700
     49 H49        -6.4781    2.6944   65.2825 H       1  ZINC000859496582    0.0700
     50 H50        -6.9879   -0.7824   64.2247 H       1  ZINC000859496582    0.1300
     51 H51        -7.8446   -1.4189   62.0087 H       1  ZINC000859496582    0.1300
     52 H52        -9.8734   -0.5619   57.9370 H       1  ZINC000859496582    0.1100
     53 H53       -11.4296    0.2112   58.3347 H       1  ZINC000859496582    0.0800
@<TRIPOS>BOND
     1     1     2    1
     2     1    28    1
     3     1    29    1
     4     1    30    1
     5     2     3    1
     6     3     4    2
     7     3     5    1
     8     5     6    1
     9     5    31    1
    10     5    32    1
    11     6     7    1
    12     6    33    1
    13     6    34    1
    14     7     8    1
    15     7    35    1
    16     7    36    1
    17     8     9    1
    18     8    37    1
    19     8    38    1
    20     9    10    1
    21    10    11    2
    22    10    12    1
    23    12    13    1
    24    12    27    1
    25    12    14    1
    26    14    15    1
    27    14    39    1
    28    14    40    1
    29    15    16    1
    30    15    41    1
    31    15    42    1
    32    16    17    1
    33    16    43    1
    34    16    44    1
    35    17    18   am
    36    17    27    1
    37    18    19    2
    38    18    20    1
    39    20    26   ar
    40    20    21   ar
    41    21    22   ar
    42    21    45    1
    43    22    23   ar
    44    22    46    1
    45    23    24    1
    46    23    25   ar
    47    24    47    1
    48    24    48    1
    49    24    49    1
    50    25    26   ar
    51    25    50    1
    52    26    51    1
    53    27    52    1
    54    27    53    1
@<TRIPOS>SUBSTRUCTURE
     1 ZINC000859496582        1 TEMP              0 ****  ****    0 ROOT


##########                                Name:    ZINC000650955167
##########                DOCK_Rotatable_Bonds:                   9
##########                         Heavy_Atoms:                  26
##########                    Molecular_Weight:             361.484
##########                DOCK_Rotatable_Bonds:                   9
##########                       Formal_Charge:        -7.07805e-07
##########                     HBond_Acceptors:                   6
##########                        HBond_Donors:                   2
##########                         Heavy_Atoms:                  26
##########                          Grid_Score:          -32.333733
##########                     Grid_vdw_energy:          -31.741583
##########                      Grid_es_energy:           -0.592151
##########           Internal_energy_repulsive:           17.747620

@<TRIPOS>MOLECULE
ZINC000650955167
 57 59 1 0 0
SMALL
USER_CHARGES


@<TRIPOS>ATOM
      1 C1         -2.4044    0.4322   44.5094 C.3     1  ZINC000650955167    0.0200
      2 O2         -2.2483    0.8911   45.8537 O.3     1  ZINC000650955167   -0.3200
      3 C3         -1.4619    0.1445   46.6731 C.ar    1  ZINC000650955167    0.1300
      4 C4         -1.9863   -0.9675   47.3154 C.ar    1  ZINC000650955167   -0.2000
      5 C5         -1.1845   -1.7251   48.1475 C.ar    1  ZINC000650955167   -0.0800
      6 C6          0.1389   -1.3754   48.3404 C.ar    1  ZINC000650955167   -0.1500
      7 C7          0.6639   -0.2670   47.7016 C.ar    1  ZINC000650955167   -0.0800
      8 C8         -0.1317    0.4901   46.8639 C.ar    1  ZINC000650955167   -0.1100
      9 C9          0.4411    1.6976   46.1676 C.3     1  ZINC000650955167   -0.0800
     10 C10         0.7151    2.7970   47.1957 C.3     1  ZINC000650955167    0.1800
     11 H11         1.6085    2.5456   47.7672 H       1  ZINC000650955167    0.0900
     12 N12        -0.4290    2.9125   48.1037 N.am    1  ZINC000650955167   -0.7300
     13 C13        -0.2274    3.1532   49.4144 C.2     1  ZINC000650955167    0.7400
     14 O14         0.9038    3.2761   49.8430 O.2     1  ZINC000650955167   -0.5800
     15 N15        -1.2797    3.2579   50.2499 N.am    1  ZINC000650955167   -0.6700
     16 C16        -2.7424    3.1674   50.1271 C.3     1  ZINC000650955167    0.1100
     17 C17        -2.8478    4.0969   51.3440 C.3     1  ZINC000650955167    0.0300
     18 N18        -3.9095    3.7312   52.2913 N.3     1  ZINC000650955167   -0.5100
     19 C19        -5.2179    3.6357   51.6095 C.3     1  ZINC000650955167    0.0400
     20 C20        -6.2487    4.1118   52.6633 C.3     1  ZINC000650955167   -0.1600
     21 C21        -5.4680    5.2483   53.3742 C.3     1  ZINC000650955167    0.0800
     22 H22        -5.5422    6.1781   52.8102 H       1  ZINC000650955167    0.0600
     23 O23        -5.9440    5.4299   54.7094 O.3     1  ZINC000650955167   -0.5600
     24 C24        -4.0162    4.7251   53.3750 C.3     1  ZINC000650955167    0.0500
     25 C25        -1.4702    3.5062   51.6869 C.3     1  ZINC000650955167    0.1400
     26 C26         0.9294    4.1287   46.4735 C.3     1  ZINC000650955167   -0.1100
     27 C27         1.3951    5.1845   47.4783 C.3     1  ZINC000650955167   -0.1400
     28 C28         1.9927    3.9543   45.3873 C.3     1  ZINC000650955167   -0.1500
     29 H29        -3.0542    1.1172   43.9648 H       1  ZINC000650955167    0.1000
     30 H30        -1.4295    0.3926   44.0234 H       1  ZINC000650955167    0.0600
     31 H31        -2.8485   -0.5632   44.5145 H       1  ZINC000650955167    0.0600
     32 H32        -3.0203   -1.2407   47.1655 H       1  ZINC000650955167    0.1300
     33 H33        -1.5923   -2.5910   48.6478 H       1  ZINC000650955167    0.1200
     34 H34         0.7639   -1.9687   48.9915 H       1  ZINC000650955167    0.1200
     35 H35         1.6980    0.0043   47.8542 H       1  ZINC000650955167    0.1300
     36 H36         1.3724    1.4234   45.6720 H       1  ZINC000650955167    0.0900
     37 H37        -0.2710    2.0619   45.4271 H       1  ZINC000650955167    0.0800
     38 H38        -1.3314    2.8157   47.7615 H       1  ZINC000650955167    0.4000
     39 H39        -3.1291    3.6091   49.2087 H       1  ZINC000650955167    0.0700
     40 H40        -3.1323    2.1662   50.3106 H       1  ZINC000650955167    0.0900
     41 H41        -2.8372    5.1587   51.0978 H       1  ZINC000650955167    0.0900
     42 H42        -5.2392    4.2878   50.7363 H       1  ZINC000650955167    0.0500
     43 H43        -5.4203    2.6047   51.3193 H       1  ZINC000650955167    0.0900
     44 H44        -7.1484    4.4970   52.1833 H       1  ZINC000650955167    0.0800
     45 H45        -6.4927    3.3103   53.3605 H       1  ZINC000650955167    0.0900
     46 H46        -5.8560    4.6457   55.2682 H       1  ZINC000650955167    0.3800
     47 H47        -3.7918    4.2551   54.3326 H       1  ZINC000650955167    0.0900
     48 H48        -3.3253    5.5482   53.1925 H       1  ZINC000650955167    0.0700
     49 H49        -1.5246    2.5965   52.2846 H       1  ZINC000650955167    0.0900
     50 H50        -0.7734    4.2383   52.0950 H       1  ZINC000650955167    0.0800
     51 H51        -0.0070    4.4494   46.0172 H       1  ZINC000650955167    0.0700
     52 H52         2.3316    4.8638   47.9346 H       1  ZINC000650955167    0.0600
     53 H53         1.5479    6.1332   46.9637 H       1  ZINC000650955167    0.0400
     54 H54         0.6376    5.3086   48.2521 H       1  ZINC000650955167    0.0500
     55 H55         1.6610    3.2021   44.6716 H       1  ZINC000650955167    0.0600
     56 H56         2.1455    4.9030   44.8728 H       1  ZINC000650955167    0.0600
     57 H57         2.9292    3.6336   45.8437 H       1  ZINC000650955167    0.0600
@<TRIPOS>BOND
     1     1     2    1
     2     1    29    1
     3     1    30    1
     4     1    31    1
     5     2     3    1
     6     3     8   ar
     7     3     4   ar
     8     4     5   ar
     9     4    32    1
    10     5     6   ar
    11     5    33    1
    12     6     7   ar
    13     6    34    1
    14     7     8   ar
    15     7    35    1
    16     8     9    1
    17     9    10    1
    18     9    36    1
    19     9    37    1
    20    10    11    1
    21    10    12    1
    22    10    26    1
    23    12    13   am
    24    12    38    1
    25    13    14    2
    26    13    15   am
    27    15    25    1
    28    15    16    1
    29    16    17    1
    30    16    39    1
    31    16    40    1
    32    17    18    1
    33    17    25    1
    34    17    41    1
    35    18    24    1
    36    18    19    1
    37    19    20    1
    38    19    42    1
    39    19    43    1
    40    20    21    1
    41    20    44    1
    42    20    45    1
    43    21    22    1
    44    21    23    1
    45    21    24    1
    46    23    46    1
    47    24    47    1
    48    24    48    1
    49    25    49    1
    50    25    50    1
    51    26    27    1
    52    26    28    1
    53    26    51    1
    54    27    52    1
    55    27    53    1
    56    27    54    1
    57    28    55    1
    58    28    56    1
    59    28    57    1
@<TRIPOS>SUBSTRUCTURE
     1 ZINC000650955167        1 TEMP              0 ****  ****    0 ROOT


##########                                Name:    ZINC000053543817
##########                DOCK_Rotatable_Bonds:                   7
##########                         Heavy_Atoms:                  25
##########                    Molecular_Weight:             350.458
##########                DOCK_Rotatable_Bonds:                   7
##########                       Formal_Charge:           0.0199998
##########                     HBond_Acceptors:                   6
##########                        HBond_Donors:                   2
##########                         Heavy_Atoms:                  25
##########                          Grid_Score:          -32.316902
##########                     Grid_vdw_energy:          -31.579020
##########                      Grid_es_energy:           -0.737882
##########           Internal_energy_repulsive:           33.914558

@<TRIPOS>MOLECULE
ZINC000053543817
 55 56 1 0 0
SMALL
USER_CHARGES


@<TRIPOS>ATOM
      1 C1        -10.7543   -2.3912   53.4857 C.3     1  ZINC000053543817   -0.0700
      2 C2        -11.3578   -2.3882   54.8667 C.2     1  ZINC000053543817   -0.0200
      3 C3        -10.9755   -1.6009   55.8915 C.2     1  ZINC000053543817   -0.1800
      4 C4        -11.8017   -1.9290   56.9814 C.2     1  ZINC000053543817   -0.1900
      5 C5        -12.6439   -2.8969   56.5652 C.2     1  ZINC000053543817    0.0000
      6 C6        -13.6991   -3.5283   57.4404 C.3     1  ZINC000053543817   -0.0300
      7 C7        -13.9189   -2.6271   58.6614 C.3     1  ZINC000053543817   -0.0500
      8 C8        -14.6149   -1.3367   58.2238 C.3     1  ZINC000053543817   -0.1500
      9 C9        -14.7937   -3.3571   59.6827 C.3     1  ZINC000053543817   -0.1400
     10 C10       -12.5680   -2.2877   59.2974 C.3     1  ZINC000053543817   -0.1200
     11 C11       -11.7904   -1.3450   58.3699 C.3     1  ZINC000053543817    0.2200
     12 H12       -12.2666   -0.3646   58.3601 H       1  ZINC000053543817    0.1000
     13 N13       -10.4091   -1.2178   58.8410 N.am    1  ZINC000053543817   -0.7100
     14 C14       -10.1073   -0.3345   59.8132 C.2     1  ZINC000053543817    0.5100
     15 O15       -10.9790    0.3562   60.2969 O.2     1  ZINC000053543817   -0.5300
     16 C16        -8.6867   -0.2050   60.2991 C.3     1  ZINC000053543817    0.1400
     17 H17        -8.0665   -0.9585   59.8137 H       1  ZINC000053543817    0.1200
     18 C18        -8.6454   -0.4095   61.8147 C.3     1  ZINC000053543817   -0.1600
     19 N19        -8.1787    1.1298   59.9724 N.am    1  ZINC000053543817   -0.7000
     20 C20        -7.7840    1.4115   58.7149 C.2     1  ZINC000053543817    0.6600
     21 O21        -7.8480    0.5579   57.8524 O.2     1  ZINC000053543817   -0.5700
     22 O22        -7.3187    2.6386   58.4143 O.3     1  ZINC000053543817   -0.3600
     23 C23        -7.0172    2.9059   57.0193 C.3     1  ZINC000053543817    0.1400
     24 C24        -5.8919    1.9795   56.5542 C.3     1  ZINC000053543817   -0.1800
     25 C25        -8.2659    2.6575   56.1709 C.3     1  ZINC000053543817   -0.1400
     26 C26        -6.5760    4.3626   56.8630 C.3     1  ZINC000053543817   -0.1800
     27 O27       -12.3728   -3.1668   55.2827 O.3     1  ZINC000053543817   -0.1700
     28 H28       -11.2678   -3.1267   52.8664 H       1  ZINC000053543817    0.0800
     29 H29       -10.8621   -1.4024   53.0399 H       1  ZINC000053543817    0.0800
     30 H30        -9.6968   -2.6467   53.5519 H       1  ZINC000053543817    0.0800
     31 H31       -10.1878   -0.8622   55.8784 H       1  ZINC000053543817    0.1400
     32 H32       -14.6303   -3.6222   56.8818 H       1  ZINC000053543817    0.0900
     33 H33       -13.3632   -4.5125   57.7670 H       1  ZINC000053543817    0.0900
     34 H34       -15.5771   -1.5781   57.7723 H       1  ZINC000053543817    0.0600
     35 H35       -14.7712   -0.6960   59.0917 H       1  ZINC000053543817    0.0600
     36 H36       -13.9921   -0.8169   57.4959 H       1  ZINC000053543817    0.0600
     37 H37       -14.2983   -4.2767   59.9941 H       1  ZINC000053543817    0.0600
     38 H38       -14.9501   -2.7167   60.5507 H       1  ZINC000053543817    0.0600
     39 H39       -15.7560   -3.5978   59.2306 H       1  ZINC000053543817    0.0600
     40 H40       -12.7310   -1.7995   60.2582 H       1  ZINC000053543817    0.0800
     41 H41       -11.9965   -3.2037   59.4471 H       1  ZINC000053543817    0.0700
     42 H42        -9.7118   -1.7694   58.4533 H       1  ZINC000053543817    0.4000
     43 H43        -9.0233   -1.4026   62.0578 H       1  ZINC000053543817    0.0800
     44 H44        -7.6178   -0.3158   62.1662 H       1  ZINC000053543817    0.0800
     45 H45        -9.2655    0.3442   62.3001 H       1  ZINC000053543817    0.0700
     46 H46        -8.1265    1.8109   60.6611 H       1  ZINC000053543817    0.4200
     47 H47        -6.2062    0.9418   56.6655 H       1  ZINC000053543817    0.0600
     48 H48        -5.6654    2.1802   55.5070 H       1  ZINC000053543817    0.0700
     49 H49        -5.0023    2.1566   57.1587 H       1  ZINC000053543817    0.0900
     50 H50        -9.0676    3.3174   56.5023 H       1  ZINC000053543817    0.0700
     51 H51        -8.0394    2.8581   55.1237 H       1  ZINC000053543817    0.0800
     52 H52        -8.5802    1.6197   56.2822 H       1  ZINC000053543817    0.0700
     53 H53        -5.6864    4.5396   57.4675 H       1  ZINC000053543817    0.0900
     54 H54        -6.3496    4.5633   55.8159 H       1  ZINC000053543817    0.0700
     55 H55        -7.3777    5.0225   57.1945 H       1  ZINC000053543817    0.0600
@<TRIPOS>BOND
     1     1     2    1
     2     1    28    1
     3     1    29    1
     4     1    30    1
     5     2    27    1
     6     2     3    2
     7     3     4    1
     8     3    31    1
     9     4    11    1
    10     4     5    2
    11     5     6    1
    12     5    27    1
    13     6     7    1
    14     6    32    1
    15     6    33    1
    16     7     8    1
    17     7     9    1
    18     7    10    1
    19     8    34    1
    20     8    35    1
    21     8    36    1
    22     9    37    1
    23     9    38    1
    24     9    39    1
    25    10    11    1
    26    10    40    1
    27    10    41    1
    28    11    12    1
    29    11    13    1
    30    13    14   am
    31    13    42    1
    32    14    15    2
    33    14    16    1
    34    16    17    1
    35    16    18    1
    36    16    19    1
    37    18    43    1
    38    18    44    1
    39    18    45    1
    40    19    20   am
    41    19    46    1
    42    20    21    2
    43    20    22    1
    44    22    23    1
    45    23    24    1
    46    23    25    1
    47    23    26    1
    48    24    47    1
    49    24    48    1
    50    24    49    1
    51    25    50    1
    52    25    51    1
    53    25    52    1
    54    26    53    1
    55    26    54    1
    56    26    55    1
@<TRIPOS>SUBSTRUCTURE
     1 ZINC000053543817        1 TEMP              0 ****  ****    0 ROOT


##########                                Name:    ZINC000562561773
##########                DOCK_Rotatable_Bonds:                   6
##########                         Heavy_Atoms:                  26
##########                    Molecular_Weight:             371.466
##########                DOCK_Rotatable_Bonds:                   6
##########                       Formal_Charge:           0.0199999
##########                     HBond_Acceptors:                   9
##########                        HBond_Donors:                   0
##########                         Heavy_Atoms:                  26
##########                          Grid_Score:          -32.293808
##########                     Grid_vdw_energy:          -32.016525
##########                      Grid_es_energy:           -0.277283
##########           Internal_energy_repulsive:            9.886699

@<TRIPOS>MOLECULE
ZINC000562561773
 47 50 1 0 0
SMALL
USER_CHARGES


@<TRIPOS>ATOM
      1 C1        -13.0679   -2.0540   62.1483 C.3     1  ZINC000562561773   -0.1100
      2 C2        -12.9175   -2.0548   60.6488 C.ar    1  ZINC000562561773   -0.0400
      3 C3        -13.9494   -2.5139   59.8530 C.ar    1  ZINC000562561773   -0.1200
      4 C4        -13.8178   -2.5173   58.4784 C.ar    1  ZINC000562561773   -0.0700
      5 C5        -12.6419   -2.0570   57.8893 C.ar    1  ZINC000562561773   -0.0300
      6 C6        -12.4994   -2.0597   56.4119 C.2     1  ZINC000562561773    0.2200
      7 N7        -13.3545   -1.5767   55.5487 N.2     1  ZINC000562561773   -0.3700
      8 O8        -12.9417   -1.7356   54.4194 O.3     1  ZINC000562561773    0.0900
      9 C9        -11.7548   -2.3498   54.4480 C.2     1  ZINC000562561773    0.1900
     10 C10       -10.9128   -2.7265   53.2564 C.3     1  ZINC000562561773   -0.0100
     11 C11       -11.0331   -1.6421   52.1838 C.3     1  ZINC000562561773   -0.1200
     12 S12        -9.6743   -0.4602   52.3656 S.3     1  ZINC000562561773    0.0600
     13 C13       -10.5267    1.0420   52.0171 C.2     1  ZINC000562561773    0.2100
     14 N14       -11.7622    1.1563   51.5801 N.2     1  ZINC000562561773   -0.3300
     15 N15       -12.0736    2.3931   51.4301 N.2     1  ZINC000562561773   -0.0300
     16 N16       -11.0798    3.1478   51.7537 N.2     1  ZINC000562561773   -0.0700
     17 N17       -10.0354    2.2962   52.1543 N.pl3   1  ZINC000562561773   -0.3600
     18 C18        -8.6989    2.6827   52.6130 C.3     1  ZINC000562561773    0.0800
     19 N19       -11.4580   -2.5567   55.7069 N.2     1  ZINC000562561773   -0.4600
     20 C20       -11.6012   -1.5941   58.6900 C.ar    1  ZINC000562561773   -0.1100
     21 C21       -11.7431   -1.5885   60.0697 C.ar    1  ZINC000562561773    0.0800
     22 N22       -10.7019   -1.1246   60.8774 N.3     1  ZINC000562561773   -0.4800
     23 C23        -9.4504   -1.8818   60.6195 C.3     1  ZINC000562561773    0.0400
     24 C24        -8.3470   -0.9372   61.1589 C.3     1  ZINC000562561773   -0.1200
     25 C25        -8.8691    0.4639   60.7662 C.3     1  ZINC000562561773   -0.1300
     26 C26       -10.3873    0.2889   60.5767 C.3     1  ZINC000562561773    0.0400
     27 H27       -13.5002   -1.1063   62.4696 H       1  ZINC000562561773    0.0700
     28 H28       -13.7227   -2.8722   62.4483 H       1  ZINC000562561773    0.0600
     29 H29       -12.0898   -2.1827   62.6117 H       1  ZINC000562561773    0.0800
     30 H30       -14.8616   -2.8715   60.3075 H       1  ZINC000562561773    0.1400
     31 H31       -14.6266   -2.8773   57.8597 H       1  ZINC000562561773    0.1400
     32 H32        -9.8710   -2.8206   53.5627 H       1  ZINC000562561773    0.1200
     33 H33       -11.2599   -3.6774   52.8522 H       1  ZINC000562561773    0.1300
     34 H34       -10.9858   -2.1010   51.1962 H       1  ZINC000562561773    0.1100
     35 H35       -11.9844   -1.1223   52.2976 H       1  ZINC000562561773    0.1100
     36 H36        -8.7101    2.8143   53.6950 H       1  ZINC000562561773    0.1000
     37 H37        -7.9846    1.9028   52.3493 H       1  ZINC000562561773    0.1000
     38 H38        -8.4076    3.6186   52.1362 H       1  ZINC000562561773    0.1100
     39 H39       -10.6879   -1.2367   58.2380 H       1  ZINC000562561773    0.1300
     40 H40        -9.4513   -2.8244   61.1668 H       1  ZINC000562561773    0.0900
     41 H41        -9.3192   -2.0560   59.5515 H       1  ZINC000562561773    0.0500
     42 H42        -8.2585   -1.0263   62.2417 H       1  ZINC000562561773    0.0800
     43 H43        -7.3924   -1.1429   60.6746 H       1  ZINC000562561773    0.0700
     44 H44        -8.6674    1.1799   61.5630 H       1  ZINC000562561773    0.0800
     45 H45        -8.4070    0.7926   59.8353 H       1  ZINC000562561773    0.0700
     46 H46       -10.6620    0.5195   59.5473 H       1  ZINC000562561773    0.0500
     47 H47       -10.9250    0.9431   61.2628 H       1  ZINC000562561773    0.0800
@<TRIPOS>BOND
     1     1     2    1
     2     1    27    1
     3     1    28    1
     4     1    29    1
     5     2    21   ar
     6     2     3   ar
     7     3     4   ar
     8     3    30    1
     9     4     5   ar
    10     4    31    1
    11     5     6    1
    12     5    20   ar
    13     6    19    1
    14     6     7    2
    15     7     8    1
    16     8     9    1
    17     9    10    1
    18     9    19    2
    19    10    11    1
    20    10    32    1
    21    10    33    1
    22    11    12    1
    23    11    34    1
    24    11    35    1
    25    12    13    1
    26    13    17    1
    27    13    14    2
    28    14    15    1
    29    15    16    2
    30    16    17    1
    31    17    18    1
    32    18    36    1
    33    18    37    1
    34    18    38    1
    35    20    21   ar
    36    20    39    1
    37    21    22    1
    38    22    26    1
    39    22    23    1
    40    23    24    1
    41    23    40    1
    42    23    41    1
    43    24    25    1
    44    24    42    1
    45    24    43    1
    46    25    26    1
    47    25    44    1
    48    25    45    1
    49    26    46    1
    50    26    47    1
@<TRIPOS>SUBSTRUCTURE
     1 ZINC000562561773        1 TEMP              0 ****  ****    0 ROOT


##########                                Name:    ZINC000263872566
##########                DOCK_Rotatable_Bonds:                   9
##########                         Heavy_Atoms:                  26
##########                    Molecular_Weight:             362.469
##########                DOCK_Rotatable_Bonds:                   9
##########                       Formal_Charge:           0.0300001
##########                     HBond_Acceptors:                   6
##########                        HBond_Donors:                   2
##########                         Heavy_Atoms:                  26
##########                          Grid_Score:          -32.276814
##########                     Grid_vdw_energy:          -31.065987
##########                      Grid_es_energy:           -1.210826
##########           Internal_energy_repulsive:           19.622725

@<TRIPOS>MOLECULE
ZINC000263872566
 56 57 1 0 0
SMALL
USER_CHARGES


@<TRIPOS>ATOM
      1 C1         -3.7837    3.4818   57.2255 C.3     1  ZINC000263872566   -0.1800
      2 C2         -3.9544    2.3919   56.1653 C.3     1  ZINC000263872566    0.1400
      3 H3         -3.0839    2.3837   55.5092 H       1  ZINC000263872566    0.0700
      4 O4         -4.0804    1.1204   56.8053 O.3     1  ZINC000263872566   -0.5600
      5 C5         -5.1929    2.6704   55.3532 C.ar    1  ZINC000263872566   -0.0800
      6 C6         -5.0880    3.2984   54.1262 C.ar    1  ZINC000263872566   -0.0900
      7 C7         -6.2239    3.5540   53.3811 C.ar    1  ZINC000263872566   -0.1000
      8 C8         -7.4648    3.1810   53.8629 C.ar    1  ZINC000263872566   -0.1100
      9 C9         -8.7033    3.4600   53.0509 C.3     1  ZINC000263872566    0.1800
     10 N10        -9.7233    2.4532   53.3546 N.am    1  ZINC000263872566   -0.7400
     11 C11        -9.6692    1.2410   52.7680 C.2     1  ZINC000263872566    0.7100
     12 O12        -8.7738    0.9830   51.9869 O.2     1  ZINC000263872566   -0.5900
     13 N13       -10.6076    0.3147   53.0474 N.am    1  ZINC000263872566   -0.6300
     14 C14       -10.5586   -1.0132   52.4206 C.3     1  ZINC000263872566    0.1100
     15 C15       -10.6035   -2.0793   53.5198 C.3     1  ZINC000263872566   -0.1200
     16 C16       -11.8322   -1.8455   54.4017 C.3     1  ZINC000263872566   -0.0800
     17 C17       -11.8984   -2.9126   55.4637 C.2     1  ZINC000263872566    0.4700
     18 O18       -11.7016   -4.0685   55.1717 O.2     1  ZINC000263872566   -0.5000
     19 O19       -12.1758   -2.5791   56.7339 O.3     1  ZINC000263872566   -0.3500
     20 C20       -13.4818   -2.9565   57.2443 C.3     1  ZINC000263872566    0.1200
     21 C21       -13.9277   -1.9451   58.3022 C.3     1  ZINC000263872566   -0.1800
     22 C22       -14.4928   -2.9729   56.0960 C.3     1  ZINC000263872566   -0.1400
     23 C23       -13.4009   -4.3493   57.8724 C.3     1  ZINC000263872566   -0.1800
     24 C24       -11.7311   -0.4705   55.0661 C.3     1  ZINC000263872566   -0.1300
     25 C25       -11.6956    0.6117   53.9891 C.3     1  ZINC000263872566    0.1300
     26 C26        -7.5696    2.5517   55.0892 C.ar    1  ZINC000263872566   -0.1000
     27 C27        -6.4333    2.2928   55.8325 C.ar    1  ZINC000263872566   -0.1100
     28 H28        -4.6541    3.4899   57.8814 H       1  ZINC000263872566    0.0700
     29 H29        -2.8878    3.2803   57.8128 H       1  ZINC000263872566    0.0600
     30 H30        -3.6876    4.4516   56.7373 H       1  ZINC000263872566    0.0700
     31 H31        -3.3028    0.8591   57.3175 H       1  ZINC000263872566    0.3800
     32 H32        -4.1185    3.5898   53.7498 H       1  ZINC000263872566    0.1300
     33 H33        -6.1421    4.0453   52.4229 H       1  ZINC000263872566    0.1300
     34 H34        -9.0850    4.4504   53.2990 H       1  ZINC000263872566    0.0800
     35 H35        -8.4584    3.4204   51.9895 H       1  ZINC000263872566    0.0800
     36 H36       -10.4377    2.6590   53.9777 H       1  ZINC000263872566    0.4000
     37 H37       -11.4148   -1.1359   51.7573 H       1  ZINC000263872566    0.0800
     38 H38        -9.6348   -1.1145   51.8508 H       1  ZINC000263872566    0.0800
     39 H39       -10.6647   -3.0681   53.0653 H       1  ZINC000263872566    0.0900
     40 H40        -9.7013   -2.0131   54.1278 H       1  ZINC000263872566    0.0800
     41 H41       -12.7324   -1.8870   53.7886 H       1  ZINC000263872566    0.1100
     42 H42       -13.9853   -0.9529   57.8547 H       1  ZINC000263872566    0.0600
     43 H43       -14.9080   -2.2284   58.6853 H       1  ZINC000263872566    0.0700
     44 H44       -13.2074   -1.9335   59.1202 H       1  ZINC000263872566    0.0800
     45 H45       -14.1752   -3.6933   55.3425 H       1  ZINC000263872566    0.0700
     46 H46       -15.4732   -3.2561   56.4792 H       1  ZINC000263872566    0.0800
     47 H47       -14.5505   -1.9805   55.6486 H       1  ZINC000263872566    0.0700
     48 H48       -12.6806   -4.3377   58.6904 H       1  ZINC000263872566    0.0800
     49 H49       -14.3811   -4.6326   58.2555 H       1  ZINC000263872566    0.0700
     50 H50       -13.0832   -5.0698   57.1188 H       1  ZINC000263872566    0.0600
     51 H51       -12.5950   -0.3143   55.7122 H       1  ZINC000263872566    0.0900
     52 H52       -10.8183   -0.4195   55.6596 H       1  ZINC000263872566    0.0700
     53 H53       -11.5242    1.5831   54.4527 H       1  ZINC000263872566    0.1000
     54 H54       -12.6436    0.6232   53.4512 H       1  ZINC000263872566    0.0700
     55 H55        -8.5390    2.2601   55.4655 H       1  ZINC000263872566    0.1300
     56 H56        -6.5151    1.8011   56.7906 H       1  ZINC000263872566    0.1300
@<TRIPOS>BOND
     1     1     2    1
     2     1    28    1
     3     1    29    1
     4     1    30    1
     5     2     3    1
     6     2     4    1
     7     2     5    1
     8     4    31    1
     9     5    27   ar
    10     5     6   ar
    11     6     7   ar
    12     6    32    1
    13     7     8   ar
    14     7    33    1
    15     8     9    1
    16     8    26   ar
    17     9    10    1
    18     9    34    1
    19     9    35    1
    20    10    11   am
    21    10    36    1
    22    11    12    2
    23    11    13   am
    24    13    25    1
    25    13    14    1
    26    14    15    1
    27    14    37    1
    28    14    38    1
    29    15    16    1
    30    15    39    1
    31    15    40    1
    32    16    17    1
    33    16    24    1
    34    16    41    1
    35    17    18    2
    36    17    19    1
    37    19    20    1
    38    20    21    1
    39    20    22    1
    40    20    23    1
    41    21    42    1
    42    21    43    1
    43    21    44    1
    44    22    45    1
    45    22    46    1
    46    22    47    1
    47    23    48    1
    48    23    49    1
    49    23    50    1
    50    24    25    1
    51    24    51    1
    52    24    52    1
    53    25    53    1
    54    25    54    1
    55    26    27   ar
    56    26    55    1
    57    27    56    1
@<TRIPOS>SUBSTRUCTURE
     1 ZINC000263872566        1 TEMP              0 ****  ****    0 ROOT


##########                                Name:    ZINC000821442454
##########                DOCK_Rotatable_Bonds:                   6
##########                         Heavy_Atoms:                  26
##########                    Molecular_Weight:             398.873
##########                DOCK_Rotatable_Bonds:                   6
##########                       Formal_Charge:          -0.0399996
##########                     HBond_Acceptors:                  11
##########                        HBond_Donors:                   2
##########                         Heavy_Atoms:                  26
##########                          Grid_Score:          -32.241817
##########                     Grid_vdw_energy:          -30.475698
##########                      Grid_es_energy:           -1.766117
##########           Internal_energy_repulsive:           13.231091

@<TRIPOS>MOLECULE
ZINC000821442454
 45 47 1 0 0
SMALL
USER_CHARGES


@<TRIPOS>ATOM
      1 C1         -8.8115    1.3809   51.9954 C.3     1  ZINC000821442454   -0.1500
      2 C2         -9.4020    0.6064   53.1754 C.3     1  ZINC000821442454   -0.6300
      3 S3        -10.6500   -0.5617   52.5682 S.o2    1  ZINC000821442454    2.6000
      4 O4        -11.8002    0.1329   52.1062 O.2     1  ZINC000821442454   -0.9500
      5 O5        -10.0418   -1.5768   51.7814 O.2     1  ZINC000821442454   -0.9500
      6 N6        -11.1696   -1.3541   53.9263 N.am    1  ZINC000821442454   -1.0000
      7 C7        -12.2005   -2.3972   53.8361 C.3     1  ZINC000821442454    0.1100
      8 C8        -13.3323   -2.0574   54.8110 C.3     1  ZINC000821442454   -0.1300
      9 C9        -12.7518   -1.8672   56.2141 C.3     1  ZINC000821442454   -0.1100
     10 C10       -11.7579   -0.7035   56.2034 C.3     1  ZINC000821442454   -0.1200
     11 H11       -12.2634    0.2035   55.8717 H       1  ZINC000821442454    0.1100
     12 C12       -11.2116   -0.4957   57.5924 C.2     1  ZINC000821442454    0.5300
     13 O13       -11.9706   -0.3713   58.5303 O.2     1  ZINC000821442454   -0.5100
     14 N14        -9.8797   -0.4481   57.7925 N.am    1  ZINC000821442454   -0.6700
     15 C15        -9.3725   -0.2552   59.0817 C.ar    1  ZINC000821442454    0.1800
     16 C16        -9.5668   -1.2261   60.0560 C.ar    1  ZINC000821442454   -0.1200
     17 C17        -9.0671   -1.0385   61.3278 C.ar    1  ZINC000821442454   -0.0500
     18 C18        -8.3669    0.1261   61.6357 C.ar    1  ZINC000821442454   -0.0300
     19 C19        -7.8283    0.3295   63.0037 C.2     1  ZINC000821442454    0.2200
     20 N20        -7.1045    1.3491   63.4214 N.2     1  ZINC000821442454   -0.2900
     21 N21        -6.8348    1.1572   64.6669 N.pl3   1  ZINC000821442454   -0.2200
     22 N22        -7.3647    0.0488   65.0515 N.2     1  ZINC000821442454   -0.0400
     23 N23        -7.9881   -0.4849   64.0565 N.2     1  ZINC000821442454   -0.2700
     24 C24        -8.1726    1.0997   60.6574 C.ar    1  ZINC000821442454   -0.0500
     25 C25        -8.6693    0.9059   59.3850 C.ar    1  ZINC000821442454   -0.0800
     26 Cl26       -8.4279    2.1176   58.1655 Cl      1  ZINC000821442454   -0.0500
     27 C27       -10.6042   -1.0318   55.2436 C.3     1  ZINC000821442454    0.1400
     28 H28        -8.3475    0.6830   51.2985 H       1  ZINC000821442454    0.0700
     29 H29        -9.6050    1.9286   51.4868 H       1  ZINC000821442454    0.0700
     30 H30        -8.0617    2.0828   52.3602 H       1  ZINC000821442454    0.0800
     31 H31        -8.6086    0.0588   53.6840 H       1  ZINC000821442454    0.1300
     32 H32        -9.8662    1.3043   53.8723 H       1  ZINC000821442454    0.1300
     33 H33       -12.5929   -2.4362   52.8199 H       1  ZINC000821442454    0.1000
     34 H34       -11.7681   -3.3622   54.1003 H       1  ZINC000821442454    0.0700
     35 H35       -13.8229   -1.1376   54.4925 H       1  ZINC000821442454    0.0700
     36 H36       -14.0574   -2.8713   54.8245 H       1  ZINC000821442454    0.0800
     37 H37       -13.5582   -1.6496   56.9144 H       1  ZINC000821442454    0.0700
     38 H38       -12.2400   -2.7790   56.5220 H       1  ZINC000821442454    0.0800
     39 H39        -9.2727   -0.5476   57.0425 H       1  ZINC000821442454    0.4200
     40 H40       -10.1099   -2.1287   59.8174 H       1  ZINC000821442454    0.1600
     41 H41        -9.2190   -1.7936   62.0847 H       1  ZINC000821442454    0.1500
     42 H42        -6.3140    1.7541   65.2267 H       1  ZINC000821442454    0.4800
     43 H43        -7.6302    2.0030   60.8940 H       1  ZINC000821442454    0.1500
     44 H44       -10.0430   -1.8849   55.6250 H       1  ZINC000821442454    0.0800
     45 H45        -9.9452   -0.1681   55.1555 H       1  ZINC000821442454    0.1000
@<TRIPOS>BOND
     1     1     2    1
     2     1    28    1
     3     1    29    1
     4     1    30    1
     5     2     3    1
     6     2    31    1
     7     2    32    1
     8     3     4    2
     9     3     5    2
    10     3     6   am
    11     6    27    1
    12     6     7    1
    13     7     8    1
    14     7    33    1
    15     7    34    1
    16     8     9    1
    17     8    35    1
    18     8    36    1
    19     9    10    1
    20     9    37    1
    21     9    38    1
    22    10    11    1
    23    10    12    1
    24    10    27    1
    25    12    13    2
    26    12    14   am
    27    14    15    1
    28    14    39    1
    29    15    25   ar
    30    15    16   ar
    31    16    17   ar
    32    16    40    1
    33    17    18   ar
    34    17    41    1
    35    18    19    1
    36    18    24   ar
    37    19    23    1
    38    19    20    2
    39    20    21    1
    40    21    22    1
    41    21    42    1
    42    22    23    2
    43    24    25   ar
    44    24    43    1
    45    25    26    1
    46    27    44    1
    47    27    45    1
@<TRIPOS>SUBSTRUCTURE
     1 ZINC000821442454        1 TEMP              0 ****  ****    0 ROOT


##########                                Name:    ZINC000437192871
##########                DOCK_Rotatable_Bonds:                   9
##########                         Heavy_Atoms:                  28
##########                    Molecular_Weight:             423.298
##########                DOCK_Rotatable_Bonds:                   9
##########                       Formal_Charge:         -8.9407e-08
##########                     HBond_Acceptors:                   9
##########                        HBond_Donors:                   1
##########                         Heavy_Atoms:                  28
##########                          Grid_Score:          -32.233276
##########                     Grid_vdw_energy:          -30.855736
##########                      Grid_es_energy:           -1.377539
##########           Internal_energy_repulsive:           15.657893

@<TRIPOS>MOLECULE
ZINC000437192871
 48 50 1 0 0
SMALL
USER_CHARGES


@<TRIPOS>ATOM
      1 C1         -8.0894    2.3089   52.7662 C.3     1  ZINC000437192871   -0.1700
      2 C2         -7.4497    3.4590   53.5466 C.3     1  ZINC000437192871    0.1300
      3 N3         -6.3426    4.0207   52.7687 N.pl3   1  ZINC000437192871   -0.3600
      4 C4         -5.4362    3.3189   52.0568 C.2     1  ZINC000437192871    0.0700
      5 C5         -4.5845    4.2030   51.4876 C.2     1  ZINC000437192871   -0.2700
      6 C6         -3.4131    3.8621   50.6031 C.3     1  ZINC000437192871    0.1900
      7 N7         -2.2055    3.7288   51.4219 N.am    1  ZINC000437192871   -0.6000
      8 C8         -2.3196    3.4459   52.8548 C.3     1  ZINC000437192871    0.1100
      9 C9         -2.0281    4.7196   53.6508 C.3     1  ZINC000437192871    0.0600
     10 O10        -2.1734    4.4526   55.0470 O.3     1  ZINC000437192871   -0.5600
     11 C11        -0.9897    3.8662   50.8568 C.2     1  ZINC000437192871    0.6000
     12 O12         0.0128    3.7557   51.5365 O.2     1  ZINC000437192871   -0.5000
     13 C13        -0.8750    4.1505   49.4163 C.2     1  ZINC000437192871   -0.2200
     14 C14        -0.8239    5.3680   48.7858 C.2     1  ZINC000437192871    0.0100
     15 C15        -0.8751    6.7245   49.4404 C.3     1  ZINC000437192871   -0.0800
     16 O16        -0.7196    5.1158   47.4790 O.3     1  ZINC000437192871    0.1100
     17 N17        -0.6992    3.9379   47.2186 N.2     1  ZINC000437192871   -0.3200
     18 C18        -0.7799    3.1946   48.2930 C.2     1  ZINC000437192871    0.0800
     19 C19        -0.7841    1.7137   48.3665 C.ar    1  ZINC000437192871   -0.0200
     20 C20        -1.9881    1.0232   48.4919 C.ar    1  ZINC000437192871   -0.0700
     21 C21        -1.9869   -0.3550   48.5593 C.ar    1  ZINC000437192871   -0.1000
     22 C22        -0.7923   -1.0528   48.5027 C.ar    1  ZINC000437192871   -0.0100
     23 Cl23       -0.7987   -2.7868   48.5877 Cl      1  ZINC000437192871   -0.0500
     24 C24         0.4071   -0.3728   48.3783 C.ar    1  ZINC000437192871   -0.1100
     25 C25         0.4169    1.0061   48.3045 C.ar    1  ZINC000437192871    0.0000
     26 Cl26        1.9212    1.8581   48.1479 Cl      1  ZINC000437192871   -0.0300
     27 C27        -4.9842    5.4893   51.8646 C.2     1  ZINC000437192871    0.0600
     28 N28        -6.0416    5.3816   52.6277 N.2     1  ZINC000437192871   -0.2900
     29 H29        -8.9131    1.8910   53.3449 H       1  ZINC000437192871    0.0800
     30 H30        -8.4668    2.6815   51.8139 H       1  ZINC000437192871    0.0600
     31 H31        -7.3440    1.5348   52.5837 H       1  ZINC000437192871    0.0700
     32 H32        -8.1952    4.2331   53.7290 H       1  ZINC000437192871    0.1000
     33 H33        -7.0723    3.0864   54.4988 H       1  ZINC000437192871    0.0900
     34 H34        -5.3973    2.2440   51.9590 H       1  ZINC000437192871    0.1600
     35 H35        -3.6083    2.9215   50.0879 H       1  ZINC000437192871    0.0900
     36 H36        -3.2688    4.6551   49.8694 H       1  ZINC000437192871    0.0800
     37 H37        -3.3294    3.1012   53.0778 H       1  ZINC000437192871    0.1000
     38 H38        -1.6025    2.6729   53.1308 H       1  ZINC000437192871    0.1000
     39 H39        -1.0092    5.0496   53.4481 H       1  ZINC000437192871    0.0600
     40 H40        -2.7284    5.5010   53.3554 H       1  ZINC000437192871    0.0500
     41 H41        -3.0673    4.1904   55.3064 H       1  ZINC000437192871    0.3800
     42 H42         0.1396    7.0907   49.5970 H       1  ZINC000437192871    0.1000
     43 H43        -1.4165    7.4181   48.7971 H       1  ZINC000437192871    0.0900
     44 H44        -1.3851    6.6456   50.4005 H       1  ZINC000437192871    0.0900
     45 H45        -2.9207    1.5660   48.5364 H       1  ZINC000437192871    0.1600
     46 H46        -2.9197   -0.8906   48.6568 H       1  ZINC000437192871    0.1500
     47 H47         1.3361   -0.9217   48.3345 H       1  ZINC000437192871    0.1500
     48 H48        -4.5056    6.4122   51.5723 H       1  ZINC000437192871    0.1800
@<TRIPOS>BOND
     1     1     2    1
     2     1    29    1
     3     1    30    1
     4     1    31    1
     5     2     3    1
     6     2    32    1
     7     2    33    1
     8     3    28    1
     9     3     4    1
    10     4     5    2
    11     4    34    1
    12     5     6    1
    13     5    27    1
    14     6     7    1
    15     6    35    1
    16     6    36    1
    17     7     8    1
    18     7    11   am
    19     8     9    1
    20     8    37    1
    21     8    38    1
    22     9    10    1
    23     9    39    1
    24     9    40    1
    25    10    41    1
    26    11    12    2
    27    11    13    1
    28    13    18    1
    29    13    14    2
    30    14    15    1
    31    14    16    1
    32    15    42    1
    33    15    43    1
    34    15    44    1
    35    16    17    1
    36    17    18    2
    37    18    19    1
    38    19    25   ar
    39    19    20   ar
    40    20    21   ar
    41    20    45    1
    42    21    22   ar
    43    21    46    1
    44    22    23    1
    45    22    24   ar
    46    24    25   ar
    47    24    47    1
    48    25    26    1
    49    27    28    2
    50    27    48    1
@<TRIPOS>SUBSTRUCTURE
     1 ZINC000437192871        1 TEMP              0 ****  ****    0 ROOT


##########                                Name:    ZINC000986832075
##########                DOCK_Rotatable_Bonds:                   7
##########                         Heavy_Atoms:                  25
##########                    Molecular_Weight:             347.433
##########                DOCK_Rotatable_Bonds:                   7
##########                       Formal_Charge:          -0.0200006
##########                     HBond_Acceptors:                   6
##########                        HBond_Donors:                   1
##########                         Heavy_Atoms:                  25
##########                          Grid_Score:          -32.220417
##########                     Grid_vdw_energy:          -32.337902
##########                      Grid_es_energy:            0.117485
##########           Internal_energy_repulsive:           37.629780

@<TRIPOS>MOLECULE
ZINC000986832075
 51 53 1 0 0
SMALL
USER_CHARGES


@<TRIPOS>ATOM
      1 C1        -14.3330   -3.6146   59.2357 C.3     1  ZINC000986832075   -0.1700
      2 C2        -13.6763   -2.3638   58.6483 C.3     1  ZINC000986832075    0.1500
      3 H3        -14.2925   -1.4922   58.8688 H       1  ZINC000986832075    0.0900
      4 N4        -12.3483   -2.1854   59.2407 N.am    1  ZINC000986832075   -0.7200
      5 C5        -12.2252   -1.6399   60.4669 C.2     1  ZINC000986832075    0.5600
      6 O6        -13.2158   -1.2972   61.0818 O.2     1  ZINC000986832075   -0.5100
      7 C7        -10.8835   -1.4581   61.0646 C.ar    1  ZINC000986832075   -0.1300
      8 C8         -9.7379   -1.9335   60.4183 C.ar    1  ZINC000986832075   -0.1100
      9 C9         -8.5057   -1.7424   61.0117 C.ar    1  ZINC000986832075    0.0900
     10 N10        -8.3993   -1.1226   62.1704 N.ar    1  ZINC000986832075   -0.4400
     11 C11        -9.4504   -0.6584   62.8150 C.ar    1  ZINC000986832075    0.0700
     12 C12       -10.7246   -0.7999   62.2910 C.ar    1  ZINC000986832075    0.1100
     13 F13       -11.7979   -0.3214   62.9574 F       1  ZINC000986832075   -0.1000
     14 C14       -13.5413   -2.5226   57.1325 C.3     1  ZINC000986832075   -0.1000
     15 C15       -13.3252   -1.1490   56.4933 C.3     1  ZINC000986832075   -0.1300
     16 C16       -13.2251   -1.3077   54.9728 C.3     1  ZINC000986832075    0.1100
     17 N17       -12.1735   -2.2875   54.6680 N.am    1  ZINC000986832075   -0.6100
     18 C18       -11.1704   -1.9776   53.8228 C.2     1  ZINC000986832075    0.5200
     19 O19       -10.3083   -2.7950   53.5793 O.2     1  ZINC000986832075   -0.5300
     20 C20       -11.1201   -0.6153   53.1805 C.3     1  ZINC000986832075   -0.0800
     21 H21       -12.1130   -0.3468   52.8197 H       1  ZINC000986832075    0.0900
     22 C22       -10.1403   -0.6412   52.0057 C.3     1  ZINC000986832075   -0.1400
     23 C23       -10.6550    0.4170   54.2097 C.3     1  ZINC000986832075   -0.1400
     24 C24        -9.2790    1.0525   54.0007 C.3     1  ZINC000986832075   -0.1800
     25 C25       -10.5463    1.8725   53.7508 C.3     1  ZINC000986832075   -0.1700
     26 C26       -12.2360   -3.6114   55.3022 C.3     1  ZINC000986832075    0.1000
     27 C27       -12.3471   -3.4267   56.8188 C.3     1  ZINC000986832075   -0.1300
     28 H28       -14.4291   -3.5014   60.3155 H       1  ZINC000986832075    0.0600
     29 H29       -15.3210   -3.7473   58.7948 H       1  ZINC000986832075    0.0700
     30 H30       -13.7167   -4.4862   59.0151 H       1  ZINC000986832075    0.0600
     31 H31       -11.5576   -2.4601   58.7504 H       1  ZINC000986832075    0.4000
     32 H32        -9.8159   -2.4428   59.4692 H       1  ZINC000986832075    0.1500
     33 H33        -7.6160   -2.1063   60.5193 H       1  ZINC000986832075    0.1700
     34 H34        -9.3162   -0.1572   63.7623 H       1  ZINC000986832075    0.1800
     35 H35       -14.4508   -2.9702   56.7318 H       1  ZINC000986832075    0.0800
     36 H36       -14.1650   -0.4982   56.7366 H       1  ZINC000986832075    0.0700
     37 H37       -12.4027   -0.7113   56.8748 H       1  ZINC000986832075    0.0800
     38 H38       -14.1782   -1.6602   54.5788 H       1  ZINC000986832075    0.0700
     39 H39       -12.9728   -0.3484   54.5211 H       1  ZINC000986832075    0.0900
     40 H40        -9.1687   -0.9951   52.3507 H       1  ZINC000986832075    0.0600
     41 H41       -10.5174   -1.3109   51.2327 H       1  ZINC000986832075    0.0600
     42 H42       -10.0366    0.3639   51.5968 H       1  ZINC000986832075    0.0700
     43 H43       -10.9753    0.2352   55.2356 H       1  ZINC000986832075    0.1100
     44 H44        -8.6936    1.2888   54.8893 H       1  ZINC000986832075    0.1000
     45 H45        -8.7050    0.7352   53.1302 H       1  ZINC000986832075    0.0900
     46 H46       -10.8060    2.0947   52.7159 H       1  ZINC000986832075    0.0900
     47 H47       -10.7946    2.6483   54.4751 H       1  ZINC000986832075    0.1000
     48 H48       -13.1085   -4.1517   54.9350 H       1  ZINC000986832075    0.0700
     49 H49       -11.3310   -4.1720   55.0677 H       1  ZINC000986832075    0.0900
     50 H50       -11.4339   -2.9676   57.1973 H       1  ZINC000986832075    0.0800
     51 H51       -12.4909   -4.3972   57.2939 H       1  ZINC000986832075    0.0800
@<TRIPOS>BOND
     1     1     2    1
     2     1    28    1
     3     1    29    1
     4     1    30    1
     5     2     3    1
     6     2     4    1
     7     2    14    1
     8     4     5   am
     9     4    31    1
    10     5     6    2
    11     5     7    1
    12     7    12   ar
    13     7     8   ar
    14     8     9   ar
    15     8    32    1
    16     9    10   ar
    17     9    33    1
    18    10    11   ar
    19    11    12   ar
    20    11    34    1
    21    12    13    1
    22    14    27    1
    23    14    15    1
    24    14    35    1
    25    15    16    1
    26    15    36    1
    27    15    37    1
    28    16    17    1
    29    16    38    1
    30    16    39    1
    31    17    18   am
    32    17    26    1
    33    18    19    2
    34    18    20    1
    35    20    21    1
    36    20    22    1
    37    20    23    1
    38    22    40    1
    39    22    41    1
    40    22    42    1
    41    23    25    1
    42    23    24    1
    43    23    43    1
    44    24    25    1
    45    24    44    1
    46    24    45    1
    47    25    46    1
    48    25    47    1
    49    26    27    1
    50    26    48    1
    51    26    49    1
    52    27    50    1
    53    27    51    1
@<TRIPOS>SUBSTRUCTURE
     1 ZINC000986832075        1 TEMP              0 ****  ****    0 ROOT


##########                                Name:    ZINC000816269301
##########                DOCK_Rotatable_Bonds:                   7
##########                         Heavy_Atoms:                  25
##########                    Molecular_Weight:             358.784
##########                DOCK_Rotatable_Bonds:                   7
##########                       Formal_Charge:           0.0100002
##########                     HBond_Acceptors:                   8
##########                        HBond_Donors:                   1
##########                         Heavy_Atoms:                  25
##########                          Grid_Score:          -32.218166
##########                     Grid_vdw_energy:          -31.302994
##########                      Grid_es_energy:           -0.915172
##########           Internal_energy_repulsive:            4.206296

@<TRIPOS>MOLECULE
ZINC000816269301
 40 42 1 0 0
SMALL
USER_CHARGES


@<TRIPOS>ATOM
      1 C1         -0.2780    1.3099   45.0134 C.3     1  ZINC000816269301    0.1000
      2 N2         -1.2601    0.9373   46.0347 N.pl3   1  ZINC000816269301   -0.4000
      3 N3         -2.1791   -0.1195   45.9662 N.2     1  ZINC000816269301    0.0000
      4 N4         -2.8826   -0.1478   47.0428 N.2     1  ZINC000816269301   -0.2000
      5 C5         -2.4998    0.8489   47.8760 C.ar    1  ZINC000816269301   -0.0300
      6 C6         -2.9307    1.2515   49.1429 C.ar    1  ZINC000816269301    0.0500
      7 C7         -2.3262    2.3411   49.7585 C.ar    1  ZINC000816269301   -0.1400
      8 C8         -2.7756    2.7720   51.0965 C.2     1  ZINC000816269301    0.5200
      9 O9         -1.9969    2.7690   52.0290 O.2     1  ZINC000816269301   -0.5000
     10 O10        -4.0494    3.1688   51.2840 O.3     1  ZINC000816269301   -0.3500
     11 C11        -4.3500    3.8544   52.5281 C.3     1  ZINC000816269301    0.0500
     12 C12        -5.7965    4.3521   52.4996 C.3     1  ZINC000816269301    0.1200
     13 N13        -6.7058    3.2061   52.4215 N.am    1  ZINC000816269301   -0.7200
     14 C14        -7.9658    3.3126   52.8879 C.2     1  ZINC000816269301    0.5600
     15 O15        -8.3482    4.3601   53.3719 O.2     1  ZINC000816269301   -0.5300
     16 C16        -8.8825    2.1561   52.8107 C.ar    1  ZINC000816269301   -0.1300
     17 C17       -10.1730    2.2484   53.3350 C.ar    1  ZINC000816269301   -0.0700
     18 C18       -11.0239    1.1658   53.2601 C.ar    1  ZINC000816269301   -0.1200
     19 C19       -10.6002   -0.0116   52.6660 C.ar    1  ZINC000816269301   -0.0100
     20 Cl20      -11.6772   -1.3702   52.5749 Cl      1  ZINC000816269301   -0.0600
     21 C21        -9.3209   -0.1093   52.1441 C.ar    1  ZINC000816269301   -0.1200
     22 C22        -8.4631    0.9685   52.2080 C.ar    1  ZINC000816269301   -0.0500
     23 C23        -1.2905    3.0326   49.1131 C.ar    1  ZINC000816269301   -0.0200
     24 C24        -0.8660    2.6446   47.8775 C.ar    1  ZINC000816269301   -0.1300
     25 C25        -1.4550    1.5514   47.2466 C.ar    1  ZINC000816269301    0.1100
     26 H26         0.6527    0.7709   45.1905 H       1  ZINC000816269301    0.0900
     27 H27        -0.6644    1.0533   44.0270 H       1  ZINC000816269301    0.1000
     28 H28        -0.0916    2.3828   45.0628 H       1  ZINC000816269301    0.1000
     29 H29        -3.7284    0.7196   49.6402 H       1  ZINC000816269301    0.1600
     30 H30        -4.2190    3.1661   53.3632 H       1  ZINC000816269301    0.0800
     31 H31        -3.6761    4.7028   52.6474 H       1  ZINC000816269301    0.1000
     32 H32        -6.0037    4.9191   53.4072 H       1  ZINC000816269301    0.1000
     33 H33        -5.9433    4.9924   51.6298 H       1  ZINC000816269301    0.0900
     34 H34        -6.4010    2.3706   52.0341 H       1  ZINC000816269301    0.4000
     35 H35       -10.5044    3.1658   53.7988 H       1  ZINC000816269301    0.1400
     36 H36       -12.0224    1.2359   53.6657 H       1  ZINC000816269301    0.1400
     37 H37        -8.9962   -1.0299   51.6821 H       1  ZINC000816269301    0.1400
     38 H38        -7.4660    0.8914   51.8004 H       1  ZINC000816269301    0.1500
     39 H39        -0.8265    3.8786   49.5984 H       1  ZINC000816269301    0.1500
     40 H40        -0.0677    3.1832   47.3884 H       1  ZINC000816269301    0.1400
@<TRIPOS>BOND
     1     1     2    1
     2     1    26    1
     3     1    27    1
     4     1    28    1
     5     2    25    1
     6     2     3    1
     7     3     4    2
     8     4     5    1
     9     5    25   ar
    10     5     6   ar
    11     6     7   ar
    12     6    29    1
    13     7     8    1
    14     7    23   ar
    15     8     9    2
    16     8    10    1
    17    10    11    1
    18    11    12    1
    19    11    30    1
    20    11    31    1
    21    12    13    1
    22    12    32    1
    23    12    33    1
    24    13    14   am
    25    13    34    1
    26    14    15    2
    27    14    16    1
    28    16    22   ar
    29    16    17   ar
    30    17    18   ar
    31    17    35    1
    32    18    19   ar
    33    18    36    1
    34    19    20    1
    35    19    21   ar
    36    21    22   ar
    37    21    37    1
    38    22    38    1
    39    23    24   ar
    40    23    39    1
    41    24    25   ar
    42    24    40    1
@<TRIPOS>SUBSTRUCTURE
     1 ZINC000816269301        1 TEMP              0 ****  ****    0 ROOT


##########                                Name:    ZINC001400108193
##########                DOCK_Rotatable_Bonds:                   9
##########                         Heavy_Atoms:                  25
##########                    Molecular_Weight:              344.41
##########                DOCK_Rotatable_Bonds:                   9
##########                       Formal_Charge:           0.0200001
##########                     HBond_Acceptors:                   6
##########                        HBond_Donors:                   2
##########                         Heavy_Atoms:                  25
##########                          Grid_Score:          -32.213486
##########                     Grid_vdw_energy:          -31.309465
##########                      Grid_es_energy:           -0.904022
##########           Internal_energy_repulsive:            6.677435

@<TRIPOS>MOLECULE
ZINC001400108193
 49 50 1 0 0
SMALL
USER_CHARGES


@<TRIPOS>ATOM
      1 C1         -7.7567   -0.2464   62.9917 C.3     1  ZINC001400108193   -0.0800
      2 C2         -8.4973   -0.4104   61.6895 C.2     1  ZINC001400108193   -0.0100
      3 C3         -9.5184   -1.2543   61.4762 C.2     1  ZINC001400108193   -0.1600
      4 C4         -9.9131   -1.0645   60.0727 C.2     1  ZINC001400108193   -0.2300
      5 C5        -10.9913   -1.7608   59.3485 C.2     1  ZINC001400108193    0.5900
      6 O6        -11.7426   -2.5069   59.9469 O.2     1  ZINC001400108193   -0.5300
      7 N7        -11.1450   -1.5707   58.0231 N.am    1  ZINC001400108193   -0.7300
      8 C8        -12.2158   -2.2643   57.3029 C.3     1  ZINC001400108193    0.1100
      9 C9        -11.6854   -2.7630   55.9572 C.3     1  ZINC001400108193    0.1300
     10 H10       -10.7124   -3.2324   56.1016 H       1  ZINC001400108193    0.1000
     11 C11       -12.6623   -3.7840   55.3706 C.3     1  ZINC001400108193   -0.1600
     12 N12       -11.5499   -1.6318   55.0361 N.am    1  ZINC001400108193   -0.7300
     13 C13       -10.6634   -1.6904   54.0227 C.2     1  ZINC001400108193    0.5200
     14 O14        -9.9788   -2.6802   53.8723 O.2     1  ZINC001400108193   -0.5100
     15 C15       -10.5227   -0.5261   53.0763 C.3     1  ZINC001400108193    0.0700
     16 H16        -9.5693   -0.5966   52.5527 H       1  ZINC001400108193    0.1000
     17 C17       -11.6660   -0.5540   52.0600 C.3     1  ZINC001400108193   -0.1800
     18 O18       -10.5714    0.6965   53.8145 O.3     1  ZINC001400108193   -0.2800
     19 C19        -9.3831    1.2362   54.1934 C.ar    1  ZINC001400108193    0.1200
     20 C20        -9.0772    1.3666   55.5403 C.ar    1  ZINC001400108193   -0.2100
     21 C21        -7.8684    1.9151   55.9228 C.ar    1  ZINC001400108193   -0.0800
     22 C22        -6.9660    2.3386   54.9647 C.ar    1  ZINC001400108193   -0.1200
     23 C23        -5.6506    2.9424   55.3849 C.3     1  ZINC001400108193   -0.1100
     24 C24        -7.2663    2.2049   53.6216 C.ar    1  ZINC001400108193   -0.0800
     25 C25        -8.4737    1.6570   53.2339 C.ar    1  ZINC001400108193   -0.1400
     26 C26        -9.0687   -0.1134   59.5792 C.2     1  ZINC001400108193    0.0200
     27 O27        -8.2408    0.2644   60.5581 O.3     1  ZINC001400108193   -0.1700
     28 H28        -6.9144   -0.9378   63.0201 H       1  ZINC001400108193    0.0900
     29 H29        -7.3899    0.7767   63.0748 H       1  ZINC001400108193    0.0800
     30 H30        -8.4299   -0.4596   63.8220 H       1  ZINC001400108193    0.0900
     31 H31        -9.9603   -1.9339   62.1898 H       1  ZINC001400108193    0.1600
     32 H32       -10.5465   -0.9747   57.5460 H       1  ZINC001400108193    0.4000
     33 H33       -13.0448   -1.5770   57.1345 H       1  ZINC001400108193    0.0800
     34 H34       -12.5612   -3.1123   57.8941 H       1  ZINC001400108193    0.0900
     35 H35       -12.2844   -4.1394   54.4121 H       1  ZINC001400108193    0.0700
     36 H36       -12.7631   -4.6257   56.0560 H       1  ZINC001400108193    0.0700
     37 H37       -13.6354   -3.3146   55.2263 H       1  ZINC001400108193    0.0600
     38 H38       -12.0982   -0.8407   55.1557 H       1  ZINC001400108193    0.4000
     39 H39       -11.6290   -1.4865   51.4968 H       1  ZINC001400108193    0.0800
     40 H40       -12.6194   -0.4834   52.5836 H       1  ZINC001400108193    0.0800
     41 H41       -11.5643    0.2881   51.3754 H       1  ZINC001400108193    0.0800
     42 H42        -9.7837    1.0401   56.2890 H       1  ZINC001400108193    0.1300
     43 H43        -7.6299    2.0172   56.9711 H       1  ZINC001400108193    0.1300
     44 H44        -4.9030    2.1548   55.4791 H       1  ZINC001400108193    0.0700
     45 H45        -5.3259    3.6637   54.6350 H       1  ZINC001400108193    0.0700
     46 H46        -5.7716    3.4451   56.3444 H       1  ZINC001400108193    0.0700
     47 H47        -6.5580    2.5327   52.8751 H       1  ZINC001400108193    0.1300
     48 H48        -8.7094    1.5561   52.1848 H       1  ZINC001400108193    0.1300
     49 H49        -9.0708    0.2709   58.5699 H       1  ZINC001400108193    0.2100
@<TRIPOS>BOND
     1     1     2    1
     2     1    28    1
     3     1    29    1
     4     1    30    1
     5     2    27    1
     6     2     3    2
     7     3     4    1
     8     3    31    1
     9     4     5    1
    10     4    26    2
    11     5     6    2
    12     5     7   am
    13     7     8    1
    14     7    32    1
    15     8     9    1
    16     8    33    1
    17     8    34    1
    18     9    10    1
    19     9    11    1
    20     9    12    1
    21    11    35    1
    22    11    36    1
    23    11    37    1
    24    12    13   am
    25    12    38    1
    26    13    14    2
    27    13    15    1
    28    15    16    1
    29    15    17    1
    30    15    18    1
    31    17    39    1
    32    17    40    1
    33    17    41    1
    34    18    19    1
    35    19    25   ar
    36    19    20   ar
    37    20    21   ar
    38    20    42    1
    39    21    22   ar
    40    21    43    1
    41    22    23    1
    42    22    24   ar
    43    23    44    1
    44    23    45    1
    45    23    46    1
    46    24    25   ar
    47    24    47    1
    48    25    48    1
    49    26    27    1
    50    26    49    1
@<TRIPOS>SUBSTRUCTURE
     1 ZINC001400108193        1 TEMP              0 ****  ****    0 ROOT


##########                                Name:    ZINC000676204775
##########                DOCK_Rotatable_Bonds:                   4
##########                         Heavy_Atoms:                  25
##########                    Molecular_Weight:             359.452
##########                DOCK_Rotatable_Bonds:                   4
##########                       Formal_Charge:          0.00999978
##########                     HBond_Acceptors:                   8
##########                        HBond_Donors:                   2
##########                         Heavy_Atoms:                  25
##########                          Grid_Score:          -32.174309
##########                     Grid_vdw_energy:          -30.123968
##########                      Grid_es_energy:           -2.050339
##########           Internal_energy_repulsive:            5.342528

@<TRIPOS>MOLECULE
ZINC000676204775
 46 49 1 0 0
SMALL
USER_CHARGES


@<TRIPOS>ATOM
      1 C1         -2.3901   -0.6333   46.2897 C.3     1  ZINC000676204775   -0.1600
      2 C2         -2.1090   -0.5596   47.7919 C.3     1  ZINC000676204775    0.1600
      3 C3         -1.1053   -1.6484   48.1768 C.3     1  ZINC000676204775   -0.1600
      4 N4         -1.5533    0.7553   48.1208 N.pl3   1  ZINC000676204775   -0.3900
      5 N5         -0.3937    1.3078   47.5672 N.2     1  ZINC000676204775   -0.2500
      6 C6         -0.1756    2.4885   48.0717 C.2     1  ZINC000676204775    0.0900
      7 C7         -1.2424    2.7691   49.0270 C.ar    1  ZINC000676204775   -0.2100
      8 C8         -1.5404    3.8515   49.8619 C.ar    1  ZINC000676204775    0.0800
      9 C9         -2.6462    3.8033   50.6608 C.ar    1  ZINC000676204775   -0.7200
     10 S10        -3.0230    5.1659   51.7124 S.o2    1  ZINC000676204775    2.6900
     11 O11        -2.3889    6.3016   51.1404 O.2     1  ZINC000676204775   -0.9300
     12 O12        -4.4194    5.1015   51.9676 O.2     1  ZINC000676204775   -0.9600
     13 N13        -2.2698    4.8898   53.1612 N.am    1  ZINC000676204775   -1.1100
     14 C14        -2.5978    3.6939   53.9412 C.3     1  ZINC000676204775    0.2400
     15 H15        -3.0670    2.9513   53.2958 H       1  ZINC000676204775    0.1000
     16 C16        -3.5534    4.0661   55.0817 C.3     1  ZINC000676204775   -0.1200
     17 C17        -3.7070    2.8792   56.0354 C.3     1  ZINC000676204775   -0.1200
     18 C18        -2.4152    2.6921   56.8411 C.3     1  ZINC000676204775   -0.0400
     19 C19        -1.2569    2.6664   55.8746 C.2     1  ZINC000676204775   -0.2300
     20 C20        -0.0019    2.2293   56.0874 C.2     1  ZINC000676204775    0.0600
     21 N21         0.6900    2.3965   54.9381 N.pl3   1  ZINC000676204775   -0.4800
     22 N22        -0.1767    2.9580   53.9881 N.2     1  ZINC000676204775   -0.2400
     23 C23        -1.3398    3.1201   54.5469 C.2     1  ZINC000676204775    0.0500
     24 C24        -3.4774    2.6902   50.6524 C.ar    1  ZINC000676204775    0.0100
     25 C25        -3.2073    1.6209   49.8459 C.ar    1  ZINC000676204775   -0.1500
     26 C26        -2.0895    1.6438   49.0159 C.ar    1  ZINC000676204775    0.1700
     27 H27        -3.1052    0.1423   46.0154 H       1  ZINC000676204775    0.0600
     28 H28        -1.4618   -0.4830   45.7386 H       1  ZINC000676204775    0.0700
     29 H29        -2.8036   -1.6117   46.0449 H       1  ZINC000676204775    0.0800
     30 H30        -3.0374   -0.7100   48.3430 H       1  ZINC000676204775    0.1000
     31 H31        -0.1770   -1.4980   47.6257 H       1  ZINC000676204775    0.0700
     32 H32        -0.9051   -1.5959   49.2469 H       1  ZINC000676204775    0.0600
     33 H33        -1.5188   -2.6268   47.9320 H       1  ZINC000676204775    0.0800
     34 H34         0.6479    3.1430   47.8268 H       1  ZINC000676204775    0.2000
     35 H35        -0.8990    4.7202   49.8744 H       1  ZINC000676204775    0.1500
     36 H36        -1.6113    5.5200   53.4933 H       1  ZINC000676204775    0.4200
     37 H37        -3.1516    4.9199   55.6271 H       1  ZINC000676204775    0.0800
     38 H38        -4.5275    4.3270   54.6679 H       1  ZINC000676204775    0.0800
     39 H39        -4.5358    3.0674   56.7178 H       1  ZINC000676204775    0.0700
     40 H40        -3.9097    1.9757   55.4603 H       1  ZINC000676204775    0.0700
     41 H41        -2.2936    3.5206   57.5387 H       1  ZINC000676204775    0.0700
     42 H42        -2.4571    1.7514   57.3899 H       1  ZINC000676204775    0.0700
     43 H43         0.3827    1.8193   57.0095 H       1  ZINC000676204775    0.1800
     44 H44         1.6219    2.1684   54.7953 H       1  ZINC000676204775    0.4400
     45 H45        -4.3477    2.6697   51.2917 H       1  ZINC000676204775    0.1500
     46 H46        -3.8617    0.7618   49.8490 H       1  ZINC000676204775    0.1300
@<TRIPOS>BOND
     1     1     2    1
     2     1    27    1
     3     1    28    1
     4     1    29    1
     5     2     3    1
     6     2     4    1
     7     2    30    1
     8     3    31    1
     9     3    32    1
    10     3    33    1
    11     4    26    1
    12     4     5    1
    13     5     6    2
    14     6     7    1
    15     6    34    1
    16     7    26   ar
    17     7     8   ar
    18     8     9   ar
    19     8    35    1
    20     9    10    1
    21     9    24   ar
    22    10    11    2
    23    10    12    2
    24    10    13   am
    25    13    14    1
    26    13    36    1
    27    14    15    1
    28    14    23    1
    29    14    16    1
    30    16    17    1
    31    16    37    1
    32    16    38    1
    33    17    18    1
    34    17    39    1
    35    17    40    1
    36    18    19    1
    37    18    41    1
    38    18    42    1
    39    19    23    1
    40    19    20    2
    41    20    21    1
    42    20    43    1
    43    21    22    1
    44    21    44    1
    45    22    23    2
    46    24    25   ar
    47    24    45    1
    48    25    26   ar
    49    25    46    1
@<TRIPOS>SUBSTRUCTURE
     1 ZINC000676204775        1 TEMP              0 ****  ****    0 ROOT


##########                                Name:    ZINC000279331220
##########                DOCK_Rotatable_Bonds:                   9
##########                         Heavy_Atoms:                  24
##########                    Molecular_Weight:             328.411
##########                DOCK_Rotatable_Bonds:                   9
##########                       Formal_Charge:          -0.0100001
##########                     HBond_Acceptors:                   5
##########                        HBond_Donors:                   0
##########                         Heavy_Atoms:                  24
##########                          Grid_Score:          -32.161007
##########                     Grid_vdw_energy:          -31.542532
##########                      Grid_es_energy:           -0.618474
##########           Internal_energy_repulsive:           17.865347

@<TRIPOS>MOLECULE
ZINC000279331220
 48 49 1 0 0
SMALL
USER_CHARGES


@<TRIPOS>ATOM
      1 C1         -2.2732    2.6741   55.9750 C.3     1  ZINC000279331220   -0.1500
      2 C2         -3.3648    3.4117   55.1973 C.3     1  ZINC000279331220    0.0500
      3 O3         -2.8459    3.8373   53.9356 O.3     1  ZINC000279331220   -0.3000
      4 C4         -3.6918    4.5206   53.1189 C.ar    1  ZINC000279331220    0.1000
      5 C5         -4.9985    4.7565   53.5138 C.ar    1  ZINC000279331220   -0.1700
      6 C6         -5.8572    5.4519   52.6823 C.ar    1  ZINC000279331220   -0.1200
      7 C7         -5.4150    5.9126   51.4565 C.ar    1  ZINC000279331220   -0.1200
      8 C8         -4.1120    5.6801   51.0561 C.ar    1  ZINC000279331220   -0.1700
      9 C9         -3.2448    4.9896   51.8869 C.ar    1  ZINC000279331220    0.1000
     10 O10        -1.9631    4.7602   51.4946 O.3     1  ZINC000279331220   -0.3000
     11 C11        -1.7693    4.2652   50.1682 C.3     1  ZINC000279331220    0.0600
     12 C12        -2.3552    2.8562   50.0588 C.3     1  ZINC000279331220   -0.1100
     13 C13        -1.5895    2.0664   48.9956 C.3     1  ZINC000279331220   -0.1300
     14 C14        -2.2675    0.7397   48.7698 C.2     1  ZINC000279331220    0.5200
     15 O15        -3.3806    0.5449   49.2099 O.2     1  ZINC000279331220   -0.5200
     16 N16        -1.6369   -0.2305   48.0788 N.am    1  ZINC000279331220   -0.5700
     17 C17        -2.2969   -1.5197   47.8579 C.3     1  ZINC000279331220    0.0800
     18 C18        -0.3567   -0.0074   47.5742 C.ar    1  ZINC000279331220    0.3400
     19 N19         0.7003   -0.2991   48.3154 N.ar    1  ZINC000279331220   -0.4800
     20 C20         1.9289   -0.1035   47.8761 C.ar    1  ZINC000279331220    0.1100
     21 C21         2.1563    0.4166   46.6175 C.ar    1  ZINC000279331220   -0.1600
     22 C22         1.0742    0.7359   45.8082 C.ar    1  ZINC000279331220   -0.0700
     23 C23        -0.2019    0.5141   46.2947 C.ar    1  ZINC000279331220   -0.1200
     24 C24        -1.4079    0.8442   45.4535 C.3     1  ZINC000279331220   -0.1100
     25 H25        -2.6689    2.3494   56.9373 H       1  ZINC000279331220    0.0800
     26 H26        -1.9454    1.8047   55.4050 H       1  ZINC000279331220    0.0700
     27 H27        -1.4275    3.3424   56.1368 H       1  ZINC000279331220    0.0700
     28 H28        -4.2105    2.7434   55.0355 H       1  ZINC000279331220    0.0600
     29 H29        -3.6927    4.2812   55.7672 H       1  ZINC000279331220    0.0600
     30 H30        -5.3466    4.3970   54.4708 H       1  ZINC000279331220    0.1300
     31 H31        -6.8757    5.6351   52.9912 H       1  ZINC000279331220    0.1300
     32 H32        -6.0889    6.4550   50.8098 H       1  ZINC000279331220    0.1300
     33 H33        -3.7692    6.0406   50.0975 H       1  ZINC000279331220    0.1300
     34 H34        -2.2702    4.9232   49.4580 H       1  ZINC000279331220    0.0600
     35 H35        -0.7030    4.2336   49.9444 H       1  ZINC000279331220    0.0600
     36 H36        -2.2675    2.3505   51.0204 H       1  ZINC000279331220    0.0800
     37 H37        -3.4062    2.9206   49.7768 H       1  ZINC000279331220    0.0800
     38 H38        -1.5759    2.6309   48.0632 H       1  ZINC000279331220    0.1000
     39 H39        -0.5668    1.8989   49.3337 H       1  ZINC000279331220    0.1000
     40 H40        -2.9407   -1.4527   46.9809 H       1  ZINC000279331220    0.0700
     41 H41        -1.5435   -2.2909   47.6975 H       1  ZINC000279331220    0.0800
     42 H42        -2.8977   -1.7746   48.7309 H       1  ZINC000279331220    0.0800
     43 H43         2.7674   -0.3529   48.5093 H       1  ZINC000279331220    0.1600
     44 H44         3.1654    0.5737   46.2662 H       1  ZINC000279331220    0.1400
     45 H45         1.2254    1.1439   44.8198 H       1  ZINC000279331220    0.1400
     46 H46        -1.7384   -0.0503   44.9254 H       1  ZINC000279331220    0.0800
     47 H47        -2.2114    1.2046   46.0959 H       1  ZINC000279331220    0.0700
     48 H48        -1.1462    1.6170   44.7306 H       1  ZINC000279331220    0.0700
@<TRIPOS>BOND
     1     1     2    1
     2     1    25    1
     3     1    26    1
     4     1    27    1
     5     2     3    1
     6     2    28    1
     7     2    29    1
     8     3     4    1
     9     4     9   ar
    10     4     5   ar
    11     5     6   ar
    12     5    30    1
    13     6     7   ar
    14     6    31    1
    15     7     8   ar
    16     7    32    1
    17     8     9   ar
    18     8    33    1
    19     9    10    1
    20    10    11    1
    21    11    12    1
    22    11    34    1
    23    11    35    1
    24    12    13    1
    25    12    36    1
    26    12    37    1
    27    13    14    1
    28    13    38    1
    29    13    39    1
    30    14    15    2
    31    14    16   am
    32    16    17    1
    33    16    18    1
    34    17    40    1
    35    17    41    1
    36    17    42    1
    37    18    23   ar
    38    18    19   ar
    39    19    20   ar
    40    20    21   ar
    41    20    43    1
    42    21    22   ar
    43    21    44    1
    44    22    23   ar
    45    22    45    1
    46    23    24    1
    47    24    46    1
    48    24    47    1
    49    24    48    1
@<TRIPOS>SUBSTRUCTURE
     1 ZINC000279331220        1 TEMP              0 ****  ****    0 ROOT


##########                                Name:    ZINC000151991096
##########                DOCK_Rotatable_Bonds:                   8
##########                         Heavy_Atoms:                  27
##########                    Molecular_Weight:             364.444
##########                DOCK_Rotatable_Bonds:                   8
##########                       Formal_Charge:          -0.0200004
##########                     HBond_Acceptors:                   5
##########                        HBond_Donors:                   1
##########                         Heavy_Atoms:                  27
##########                          Grid_Score:          -32.129120
##########                     Grid_vdw_energy:          -29.977156
##########                      Grid_es_energy:           -2.151963
##########           Internal_energy_repulsive:           16.739290

@<TRIPOS>MOLECULE
ZINC000151991096
 51 53 1 0 0
SMALL
USER_CHARGES


@<TRIPOS>ATOM
      1 C1         -7.0310    3.0758   52.9408 C.3     1  ZINC000151991096   -0.1500
      2 C2         -6.2096    3.3931   54.1920 C.3     1  ZINC000151991096   -0.1300
      3 C3         -5.1443    4.4372   53.8515 C.3     1  ZINC000151991096    0.1400
      4 H4         -5.6286    5.3560   53.5208 H       1  ZINC000151991096    0.1000
      5 N5         -4.2841    3.9261   52.7816 N.am    1  ZINC000151991096   -0.7200
      6 C6         -3.6934    4.7824   51.9247 C.2     1  ZINC000151991096    0.5600
      7 O7         -3.8759    5.9791   52.0387 O.2     1  ZINC000151991096   -0.5300
      8 C8         -2.8253    4.2675   50.8477 C.ar    1  ZINC000151991096   -0.1700
      9 C9         -2.4797    5.0905   49.7727 C.ar    1  ZINC000151991096   -0.0500
     10 C10        -1.6692    4.6065   48.7702 C.ar    1  ZINC000151991096   -0.1600
     11 C11        -1.1950    3.3011   48.8266 C.ar    1  ZINC000151991096    0.1600
     12 O12        -0.3961    2.8279   47.8369 O.3     1  ZINC000151991096   -0.3000
     13 C13        -0.9989    1.9581   46.8766 C.3     1  ZINC000151991096    0.0900
     14 C14        -0.9795    0.5442   47.3976 C.ar    1  ZINC000151991096   -0.0500
     15 C15        -2.1609   -0.0885   47.7240 C.ar    1  ZINC000151991096   -0.1000
     16 C16        -2.1448   -1.3868   48.2026 C.ar    1  ZINC000151991096   -0.0900
     17 C17        -0.9456   -2.0590   48.3576 C.ar    1  ZINC000151991096   -0.1200
     18 C18         0.2435   -1.4381   48.0351 C.ar    1  ZINC000151991096   -0.0700
     19 C19         0.2342   -0.1305   47.5459 C.ar    1  ZINC000151991096   -0.0200
     20 C20         1.4647    0.5202   47.2090 C.1     1  ZINC000151991096    0.2400
     21 N21         2.4407    1.0363   46.9418 N.1     1  ZINC000151991096   -0.4000
     22 C22        -1.5365    2.4793   49.8943 C.ar    1  ZINC000151991096   -0.2200
     23 C23        -2.3422    2.9575   50.9034 C.ar    1  ZINC000151991096   -0.0100
     24 C24        -4.2977    4.7255   55.0929 C.3     1  ZINC000151991096    0.0700
     25 H25        -3.8403    5.7112   55.0077 H       1  ZINC000151991096    0.1000
     26 C26        -3.2000    3.6499   55.2396 C.3     1  ZINC000151991096   -0.1500
     27 C27        -3.1688    3.4180   56.7749 C.3     1  ZINC000151991096   -0.1600
     28 C28        -4.6628    3.6187   57.1331 C.3     1  ZINC000151991096    0.0500
     29 O29        -5.1193    4.6707   56.2649 O.3     1  ZINC000151991096   -0.3700
     30 H30        -6.3737    2.6844   52.1643 H       1  ZINC000151991096    0.0500
     31 H31        -7.7899    2.3320   53.1834 H       1  ZINC000151991096    0.0500
     32 H32        -7.5145    3.9849   52.5833 H       1  ZINC000151991096    0.0600
     33 H33        -6.8668    3.7846   54.9685 H       1  ZINC000151991096    0.0700
     34 H34        -5.7261    2.4840   54.5495 H       1  ZINC000151991096    0.0700
     35 H35        -4.1395    2.9713   52.6898 H       1  ZINC000151991096    0.4000
     36 H36        -2.8480    6.1047   49.7279 H       1  ZINC000151991096    0.1300
     37 H37        -1.4019    5.2418   47.9387 H       1  ZINC000151991096    0.1400
     38 H38        -2.0296    2.2672   46.7029 H       1  ZINC000151991096    0.0800
     39 H39        -0.4419    2.0082   45.9410 H       1  ZINC000151991096    0.0800
     40 H40        -3.1005    0.4307   47.6060 H       1  ZINC000151991096    0.1400
     41 H41        -3.0728   -1.8775   48.4565 H       1  ZINC000151991096    0.1400
     42 H42        -0.9403   -3.0718   48.7324 H       1  ZINC000151991096    0.1400
     43 H43         1.1790   -1.9638   48.1570 H       1  ZINC000151991096    0.1400
     44 H44        -1.1663    1.4655   49.9344 H       1  ZINC000151991096    0.1300
     45 H45        -2.6069    2.3184   51.7329 H       1  ZINC000151991096    0.1400
     46 H46        -3.4795    2.7363   54.7148 H       1  ZINC000151991096    0.0800
     47 H47        -2.2399    4.0243   54.8842 H       1  ZINC000151991096    0.0900
     48 H48        -2.8403    2.4062   57.0128 H       1  ZINC000151991096    0.0800
     49 H49        -2.5427    4.1593   57.2716 H       1  ZINC000151991096    0.0800
     50 H50        -5.2231    2.7027   56.9457 H       1  ZINC000151991096    0.0600
     51 H51        -4.7649    3.9189   58.1759 H       1  ZINC000151991096    0.0900
@<TRIPOS>BOND
     1     1     2    1
     2     1    30    1
     3     1    31    1
     4     1    32    1
     5     2     3    1
     6     2    33    1
     7     2    34    1
     8     3     4    1
     9     3     5    1
    10     3    24    1
    11     5     6   am
    12     5    35    1
    13     6     7    2
    14     6     8    1
    15     8    23   ar
    16     8     9   ar
    17     9    10   ar
    18     9    36    1
    19    10    11   ar
    20    10    37    1
    21    11    12    1
    22    11    22   ar
    23    12    13    1
    24    13    14    1
    25    13    38    1
    26    13    39    1
    27    14    19   ar
    28    14    15   ar
    29    15    16   ar
    30    15    40    1
    31    16    17   ar
    32    16    41    1
    33    17    18   ar
    34    17    42    1
    35    18    19   ar
    36    18    43    1
    37    19    20    1
    38    20    21    3
    39    22    23   ar
    40    22    44    1
    41    23    45    1
    42    24    25    1
    43    24    29    1
    44    24    26    1
    45    26    27    1
    46    26    46    1
    47    26    47    1
    48    27    28    1
    49    27    48    1
    50    27    49    1
    51    28    29    1
    52    28    50    1
    53    28    51    1
@<TRIPOS>SUBSTRUCTURE
     1 ZINC000151991096        1 TEMP              0 ****  ****    0 ROOT


##########                                Name:    ZINC000498646479
##########                DOCK_Rotatable_Bonds:                   7
##########                         Heavy_Atoms:                  29
##########                    Molecular_Weight:              407.58
##########                DOCK_Rotatable_Bonds:                   7
##########                       Formal_Charge:          -0.0199997
##########                     HBond_Acceptors:                   5
##########                        HBond_Donors:                   0
##########                         Heavy_Atoms:                  29
##########                          Grid_Score:          -32.125519
##########                     Grid_vdw_energy:          -31.582586
##########                      Grid_es_energy:           -0.542934
##########           Internal_energy_repulsive:           23.644503

@<TRIPOS>MOLECULE
ZINC000498646479
 58 61 1 0 0
SMALL
USER_CHARGES


@<TRIPOS>ATOM
      1 C1         -7.5858    1.5907   57.1790 C.3     1  ZINC000498646479   -0.1500
      2 C2         -7.2636    2.9641   57.7712 C.3     1  ZINC000498646479   -0.0600
      3 C3         -6.5300    3.7927   56.7482 C.2     1  ZINC000498646479   -0.1700
      4 C4         -5.6625    4.7669   57.0266 C.2     1  ZINC000498646479   -0.1400
      5 C5         -5.1109    5.3903   55.9206 C.2     1  ZINC000498646479   -0.1300
      6 C6         -5.5304    4.9222   54.7441 C.2     1  ZINC000498646479   -0.1900
      7 C7         -5.0820    5.4291   53.3976 C.3     1  ZINC000498646479    0.1300
      8 N8         -4.1363    4.4739   52.8049 N.3     1  ZINC000498646479   -0.5300
      9 C9         -2.7836    4.6694   53.3432 C.3     1  ZINC000498646479    0.0400
     10 C10        -1.8703    3.5459   52.8415 C.3     1  ZINC000498646479    0.1200
     11 N11        -1.9544    3.4958   51.3739 N.am    1  ZINC000498646479   -0.6100
     12 C12        -0.8396    3.5025   50.6165 C.2     1  ZINC000498646479    0.5200
     13 O13         0.2515    3.5502   51.1439 O.2     1  ZINC000498646479   -0.5400
     14 C14        -0.9488    3.4506   49.1144 C.3     1  ZINC000498646479   -0.1000
     15 H15        -1.8056    2.8382   48.8334 H       1  ZINC000498646479    0.0900
     16 C16        -1.1331    4.8675   48.5672 C.3     1  ZINC000498646479   -0.1500
     17 C17         0.3273    2.8406   48.5311 C.3     1  ZINC000498646479   -0.0600
     18 C18         0.0960    2.4781   47.0867 C.ar    1  ZINC000498646479   -0.1200
     19 C19        -0.7053    1.3742   46.7435 C.ar    1  ZINC000498646479   -0.0200
     20 C20        -1.3207    0.5671   47.7112 C.ar    1  ZINC000498646479   -0.1200
     21 C21        -2.0856   -0.4884   47.3159 C.ar    1  ZINC000498646479   -0.1000
     22 C22        -2.2656   -0.7790   45.9647 C.ar    1  ZINC000498646479   -0.1200
     23 C23        -1.6833   -0.0169   44.9979 C.ar    1  ZINC000498646479   -0.0900
     24 C24        -0.8882    1.0797   45.3671 C.ar    1  ZINC000498646479   -0.1100
     25 C25        -0.2632    1.9013   44.4156 C.ar    1  ZINC000498646479    0.1400
     26 N26         0.4707    2.9160   44.8090 N.ar    1  ZINC000498646479   -0.4800
     27 C27         0.6538    3.2164   46.0872 C.ar    1  ZINC000498646479    0.0800
     28 C28        -3.2873    3.4379   50.7548 C.3     1  ZINC000498646479    0.1100
     29 C29        -4.1447    4.5657   51.3389 C.3     1  ZINC000498646479    0.0400
     30 S30        -6.6809    3.6176   55.0046 S.3     1  ZINC000498646479    0.1300
     31 H31        -8.1164    0.9914   57.9189 H       1  ZINC000498646479    0.0600
     32 H32        -8.2114    1.7139   56.2949 H       1  ZINC000498646479    0.0600
     33 H33        -6.6592    1.0882   56.9013 H       1  ZINC000498646479    0.0600
     34 H34        -8.1901    3.4665   58.0489 H       1  ZINC000498646479    0.0800
     35 H35        -6.6380    2.8409   58.6553 H       1  ZINC000498646479    0.0700
     36 H36        -5.4099    5.0484   58.0382 H       1  ZINC000498646479    0.1400
     37 H37        -4.3954    6.1950   56.0040 H       1  ZINC000498646479    0.1300
     38 H38        -5.9472    5.5372   52.7435 H       1  ZINC000498646479    0.0900
     39 H39        -4.5941    6.3965   53.5176 H       1  ZINC000498646479    0.0500
     40 H40        -2.3945    5.6311   53.0089 H       1  ZINC000498646479    0.0400
     41 H41        -2.8193    4.6499   54.4325 H       1  ZINC000498646479    0.1000
     42 H42        -0.8424    3.7475   53.1427 H       1  ZINC000498646479    0.1000
     43 H43        -2.1974    2.5939   53.2596 H       1  ZINC000498646479    0.0800
     44 H44        -1.2961    4.8227   47.4904 H       1  ZINC000498646479    0.0700
     45 H45        -1.9948    5.3326   49.0461 H       1  ZINC000498646479    0.0600
     46 H46        -0.2399    5.4564   48.7753 H       1  ZINC000498646479    0.0700
     47 H47         1.1397    3.5642   48.5984 H       1  ZINC000498646479    0.0900
     48 H48         0.5913    1.9445   49.0927 H       1  ZINC000498646479    0.0800
     49 H49        -1.1890    0.7805   48.7618 H       1  ZINC000498646479    0.1400
     50 H50        -2.5596   -1.1100   48.0610 H       1  ZINC000498646479    0.1300
     51 H51        -2.8767   -1.6225   45.6796 H       1  ZINC000498646479    0.1300
     52 H52        -1.8320   -0.2545   43.9550 H       1  ZINC000498646479    0.1300
     53 H53        -0.3858    1.6986   43.3619 H       1  ZINC000498646479    0.1600
     54 H54         1.2699    4.0656   46.3435 H       1  ZINC000498646479    0.1500
     55 H55        -3.1961    3.5681   49.6765 H       1  ZINC000498646479    0.0900
     56 H56        -3.7505    2.4755   50.9724 H       1  ZINC000498646479    0.0800
     57 H57        -5.1676    4.4709   50.9743 H       1  ZINC000498646479    0.0900
     58 H58        -3.7366    5.5288   51.0323 H       1  ZINC000498646479    0.0400
@<TRIPOS>BOND
     1     1     2    1
     2     1    31    1
     3     1    32    1
     4     1    33    1
     5     2     3    1
     6     2    34    1
     7     2    35    1
     8     3    30    1
     9     3     4    2
    10     4     5    1
    11     4    36    1
    12     5     6    2
    13     5    37    1
    14     6     7    1
    15     6    30    1
    16     7     8    1
    17     7    38    1
    18     7    39    1
    19     8    29    1
    20     8     9    1
    21     9    10    1
    22     9    40    1
    23     9    41    1
    24    10    11    1
    25    10    42    1
    26    10    43    1
    27    11    12   am
    28    11    28    1
    29    12    13    2
    30    12    14    1
    31    14    15    1
    32    14    16    1
    33    14    17    1
    34    16    44    1
    35    16    45    1
    36    16    46    1
    37    17    18    1
    38    17    47    1
    39    17    48    1
    40    18    27   ar
    41    18    19   ar
    42    19    24   ar
    43    19    20   ar
    44    20    21   ar
    45    20    49    1
    46    21    22   ar
    47    21    50    1
    48    22    23   ar
    49    22    51    1
    50    23    24   ar
    51    23    52    1
    52    24    25   ar
    53    25    26   ar
    54    25    53    1
    55    26    27   ar
    56    27    54    1
    57    28    29    1
    58    28    55    1
    59    28    56    1
    60    29    57    1
    61    29    58    1
@<TRIPOS>SUBSTRUCTURE
     1 ZINC000498646479        1 TEMP              0 ****  ****    0 ROOT


##########                                Name:    ZINC000451500596
##########                DOCK_Rotatable_Bonds:                   7
##########                         Heavy_Atoms:                  25
##########                    Molecular_Weight:             365.497
##########                DOCK_Rotatable_Bonds:                   7
##########                       Formal_Charge:           0.0400004
##########                     HBond_Acceptors:                   7
##########                        HBond_Donors:                   2
##########                         Heavy_Atoms:                  25
##########                          Grid_Score:          -32.108738
##########                     Grid_vdw_energy:          -31.407421
##########                      Grid_es_energy:           -0.701318
##########           Internal_energy_repulsive:           10.490071

@<TRIPOS>MOLECULE
ZINC000451500596
 52 54 1 0 0
SMALL
USER_CHARGES


@<TRIPOS>ATOM
      1 C1         -9.0740   -0.8637   62.6187 C.3     1  ZINC000451500596   -0.6700
      2 S2         -8.6816   -0.9948   60.8526 S.o2    1  ZINC000451500596    2.6100
      3 O3         -7.8672    0.0944   60.4406 O.2     1  ZINC000451500596   -0.9500
      4 O4         -8.3413   -2.3327   60.5154 O.2     1  ZINC000451500596   -0.9600
      5 N5        -10.1273   -0.7360   60.0877 N.am    1  ZINC000451500596   -1.1200
      6 C6        -11.2618   -1.6266   60.3450 C.3     1  ZINC000451500596    0.1200
      7 C7        -12.3219   -1.4286   59.2596 C.3     1  ZINC000451500596   -0.1000
      8 H8        -12.3130   -0.3951   58.9134 H       1  ZINC000451500596    0.0900
      9 C9        -13.7167   -1.7891   59.8113 C.3     1  ZINC000451500596   -0.1200
     10 C10       -14.4333   -2.4683   58.6178 C.3     1  ZINC000451500596   -0.1300
     11 C11       -13.2970   -3.2892   57.9590 C.3     1  ZINC000451500596   -0.1300
     12 C12       -12.0543   -2.3814   58.0814 C.3     1  ZINC000451500596    0.1400
     13 H13       -11.1694   -2.9851   58.2830 H       1  ZINC000451500596    0.1000
     14 N14       -11.8684   -1.6160   56.8461 N.am    1  ZINC000451500596   -0.7200
     15 C15       -11.4635   -2.2391   55.7218 C.2     1  ZINC000451500596    0.5300
     16 O16       -11.2516   -3.4333   55.7329 O.2     1  ZINC000451500596   -0.5300
     17 C17       -11.2740   -1.4522   54.4506 C.3     1  ZINC000451500596   -0.1300
     18 H18       -10.5497   -0.6513   54.5991 H       1  ZINC000451500596    0.1000
     19 C19       -10.8328   -2.3825   53.2902 C.3     1  ZINC000451500596   -0.1200
     20 C20       -11.3435   -1.6031   52.0527 C.3     1  ZINC000451500596    0.0500
     21 N21       -12.6293   -1.0133   52.4823 N.3     1  ZINC000451500596   -0.4900
     22 C22       -12.8382    0.2276   51.8761 C.ar    1  ZINC000451500596    0.0800
     23 C23       -13.8951    0.4012   50.9917 C.ar    1  ZINC000451500596   -0.0900
     24 C24       -14.0990    1.6296   50.3944 C.ar    1  ZINC000451500596   -0.1100
     25 C25       -13.2521    2.6860   50.6756 C.ar    1  ZINC000451500596   -0.1200
     26 C26       -12.1989    2.5167   51.5555 C.ar    1  ZINC000451500596   -0.1100
     27 C27       -11.9927    1.2925   52.1607 C.ar    1  ZINC000451500596   -0.1500
     28 C28       -12.6205   -0.8849   53.9541 C.3     1  ZINC000451500596    0.0600
     29 H29        -9.4740    0.1281   62.8295 H       1  ZINC000451500596    0.1300
     30 H30        -9.8151   -1.6181   62.8833 H       1  ZINC000451500596    0.1300
     31 H31        -8.1688   -1.0225   63.2049 H       1  ZINC000451500596    0.1300
     32 H32       -10.2231    0.0051   59.4693 H       1  ZINC000451500596    0.4200
     33 H33       -10.9208   -2.6618   60.3351 H       1  ZINC000451500596    0.0700
     34 H34       -11.6918   -1.3949   61.3194 H       1  ZINC000451500596    0.0900
     35 H35       -13.6286   -2.4823   60.6479 H       1  ZINC000451500596    0.0800
     36 H36       -14.2512   -0.8891   60.1150 H       1  ZINC000451500596    0.0700
     37 H37       -15.2304   -3.1240   58.9682 H       1  ZINC000451500596    0.0700
     38 H38       -14.8222   -1.7218   57.9252 H       1  ZINC000451500596    0.0700
     39 H39       -13.1411   -4.2245   58.4965 H       1  ZINC000451500596    0.0800
     40 H40       -13.5251   -3.4837   56.9111 H       1  ZINC000451500596    0.0700
     41 H41       -12.0368   -0.6608   56.8374 H       1  ZINC000451500596    0.4000
     42 H42        -9.7481   -2.4879   53.2649 H       1  ZINC000451500596    0.0800
     43 H43       -11.3164   -3.3565   53.3651 H       1  ZINC000451500596    0.0800
     44 H44       -10.6378   -0.8181   51.7808 H       1  ZINC000451500596    0.0600
     45 H45       -11.4987   -2.2820   51.2142 H       1  ZINC000451500596    0.0900
     46 H46       -14.5566   -0.4236   50.7712 H       1  ZINC000451500596    0.1300
     47 H47       -14.9207    1.7653   49.7067 H       1  ZINC000451500596    0.1300
     48 H48       -13.4134    3.6454   50.2065 H       1  ZINC000451500596    0.1200
     49 H49       -11.5393    3.3438   51.7729 H       1  ZINC000451500596    0.1200
     50 H50       -11.1701    1.1609   52.8480 H       1  ZINC000451500596    0.1200
     51 H51       -13.4424   -1.4594   54.3813 H       1  ZINC000451500596    0.1000
     52 H52       -12.7128    0.1641   54.2353 H       1  ZINC000451500596    0.0700
@<TRIPOS>BOND
     1     1     2    1
     2     1    29    1
     3     1    30    1
     4     1    31    1
     5     2     3    2
     6     2     4    2
     7     2     5   am
     8     5     6    1
     9     5    32    1
    10     6     7    1
    11     6    33    1
    12     6    34    1
    13     7     8    1
    14     7    12    1
    15     7     9    1
    16     9    10    1
    17     9    35    1
    18     9    36    1
    19    10    11    1
    20    10    37    1
    21    10    38    1
    22    11    12    1
    23    11    39    1
    24    11    40    1
    25    12    13    1
    26    12    14    1
    27    14    15   am
    28    14    41    1
    29    15    16    2
    30    15    17    1
    31    17    18    1
    32    17    28    1
    33    17    19    1
    34    19    20    1
    35    19    42    1
    36    19    43    1
    37    20    21    1
    38    20    44    1
    39    20    45    1
    40    21    22    1
    41    21    28    1
    42    22    27   ar
    43    22    23   ar
    44    23    24   ar
    45    23    46    1
    46    24    25   ar
    47    24    47    1
    48    25    26   ar
    49    25    48    1
    50    26    27   ar
    51    26    49    1
    52    27    50    1
    53    28    51    1
    54    28    52    1
@<TRIPOS>SUBSTRUCTURE
     1 ZINC000451500596        1 TEMP              0 ****  ****    0 ROOT


##########                                Name:    ZINC000284209281
##########                DOCK_Rotatable_Bonds:                   8
##########                         Heavy_Atoms:                  26
##########                    Molecular_Weight:             353.424
##########                DOCK_Rotatable_Bonds:                   8
##########                       Formal_Charge:          0.00999954
##########                     HBond_Acceptors:                   7
##########                        HBond_Donors:                   1
##########                         Heavy_Atoms:                  26
##########                          Grid_Score:          -32.096653
##########                     Grid_vdw_energy:          -32.129707
##########                      Grid_es_energy:            0.033054
##########           Internal_energy_repulsive:            9.316524

@<TRIPOS>MOLECULE
ZINC000284209281
 49 51 1 0 0
SMALL
USER_CHARGES


@<TRIPOS>ATOM
      1 O1         -0.6718    4.7824   48.8645 O.2     1  <0>        -0.5100
      2 C2         -0.4273    3.7478   49.4497 C.2     1  <0>         0.5100
      3 N3         -0.2660    2.6034   48.7563 N.am    1  <0>        -0.7000
      4 C4         -0.3920    2.6072   47.2968 C.3     1  <0>         0.1200
      5 C5          0.3610    1.4082   46.7167 C.3     1  <0>        -0.1000
      6 C6         -0.3590    0.1367   47.0852 C.ar    1  <0>        -0.0400
      7 C7         -1.5447   -0.2147   46.4582 C.ar    1  <0>        -0.1700
      8 C8         -2.1770   -1.3884   46.8224 C.ar    1  <0>         0.1000
      9 N9         -1.6655   -2.1691   47.7539 N.ar    1  <0>        -0.4900
     10 C10        -0.5400   -1.8667   48.3710 C.ar    1  <0>         0.1000
     11 C11         0.1513   -0.7123   48.0552 C.ar    1  <0>        -0.1700
     12 C12        -0.2988    3.7438   50.9386 C.2     1  <0>         0.5100
     13 O13         0.7637    4.0178   51.4567 O.2     1  <0>        -0.5200
     14 N14        -1.3632    3.4357   51.7060 N.am    1  <0>        -0.5800
     15 C15        -1.2601    3.4316   53.1731 C.3     1  <0>         0.0800
     16 C16        -2.4010    4.2809   53.7437 C.3     1  <0>         0.0400
     17 N17        -3.6812    3.7976   53.2095 N.3     1  <0>        -0.5300
     18 C18        -4.8118    4.4713   53.8621 C.3     1  <0>         0.1000
     19 C19        -5.4558    3.5310   54.8481 C.ar    1  <0>         0.1300
     20 C20        -6.8155    3.6119   55.0810 C.ar    1  <0>        -0.1500
     21 C21        -7.3983    2.7417   55.9898 C.ar    1  <0>        -0.0700
     22 C22        -6.5878    1.8190   56.6328 C.ar    1  <0>        -0.1700
     23 C23        -5.2353    1.7971   56.3487 C.ar    1  <0>         0.1000
     24 N24        -4.7161    2.6368   55.4746 N.ar    1  <0>        -0.4800
     25 C25        -3.7442    3.9571   51.7506 C.3     1  <0>         0.0400
     26 C26        -2.6600    3.1005   51.0986 C.3     1  <0>         0.1100
     27 H27        -0.0666    1.7771   49.2238 H       1  <0>         0.4100
     28 H28        -1.4450    2.5422   47.0228 H       1  <0>         0.0800
     29 H29         0.0309    3.5294   46.8981 H       1  <0>         0.0800
     30 H30         0.4066    1.4984   45.6314 H       1  <0>         0.0900
     31 H31         1.3725    1.3837   47.1221 H       1  <0>         0.0900
     32 H32        -1.9691    0.4209   45.6950 H       1  <0>         0.1400
     33 H33        -3.1009   -1.6693   46.3388 H       1  <0>         0.1600
     34 H34        -0.1519   -2.5308   49.1292 H       1  <0>         0.1600
     35 H35         1.0727   -0.4703   48.5639 H       1  <0>         0.1400
     36 H36        -1.3438    2.4098   53.5433 H       1  <0>         0.0800
     37 H37        -0.3021    3.8557   53.4742 H       1  <0>         0.1400
     38 H38        -2.4064    4.1997   54.8306 H       1  <0>         0.0900
     39 H39        -2.2573    5.3227   53.4570 H       1  <0>         0.0400
     40 H40        -4.4535    5.3575   54.3859 H       1  <0>         0.0900
     41 H41        -5.5433    4.7652   53.1093 H       1  <0>         0.0600
     42 H42        -7.4165    4.3439   54.5620 H       1  <0>         0.1400
     43 H43        -8.4584    2.7821   56.1922 H       1  <0>         0.1400
     44 H44        -7.0078    1.1262   57.3469 H       1  <0>         0.1400
     45 H45        -4.5970    1.0816   56.8456 H       1  <0>         0.1600
     46 H46        -4.7239    3.6411   51.3921 H       1  <0>         0.1000
     47 H47        -3.5819    5.0034   51.4917 H       1  <0>         0.0400
     48 H48        -2.6280    3.3029   50.0280 H       1  <0>         0.1000
     49 H49        -2.8754    2.0456   51.2684 H       1  <0>         0.0800
@<TRIPOS>BOND
     1     1     2    2
     2     2     3   am
     3     2    12    1
     4     3     4    1
     5     3    27    1
     6     4     5    1
     7     4    28    1
     8     4    29    1
     9     5     6    1
    10     5    30    1
    11     5    31    1
    12     6    11   ar
    13     6     7   ar
    14     7     8   ar
    15     7    32    1
    16     8     9   ar
    17     8    33    1
    18     9    10   ar
    19    10    11   ar
    20    10    34    1
    21    11    35    1
    22    12    13    2
    23    12    14   am
    24    14    26    1
    25    14    15    1
    26    15    16    1
    27    15    36    1
    28    15    37    1
    29    16    17    1
    30    16    38    1
    31    16    39    1
    32    17    18    1
    33    17    25    1
    34    18    19    1
    35    18    40    1
    36    18    41    1
    37    19    24   ar
    38    19    20   ar
    39    20    21   ar
    40    20    42    1
    41    21    22   ar
    42    21    43    1
    43    22    23   ar
    44    22    44    1
    45    23    24   ar
    46    23    45    1
    47    25    26    1
    48    25    46    1
    49    25    47    1
    50    26    48    1
    51    26    49    1
@<TRIPOS>SUBSTRUCTURE
     1 <0>         1 TEMP              0 ****  ****    0 ROOT


##########                                Name:    ZINC000919225759
##########                DOCK_Rotatable_Bonds:                   4
##########                         Heavy_Atoms:                  27
##########                    Molecular_Weight:             375.295
##########                DOCK_Rotatable_Bonds:                   4
##########                       Formal_Charge:                0.04
##########                     HBond_Acceptors:                  11
##########                        HBond_Donors:                   0
##########                         Heavy_Atoms:                  27
##########                          Grid_Score:          -32.086567
##########                     Grid_vdw_energy:          -31.126068
##########                      Grid_es_energy:           -0.960501
##########           Internal_energy_repulsive:            6.819972

@<TRIPOS>MOLECULE
ZINC000919225759
 40 41 1 0 0
SMALL
USER_CHARGES


@<TRIPOS>ATOM
      1 C1          0.9047    4.1480   45.6326 C.3     1  ZINC000919225759   -0.1500
      2 C2          0.0686    2.9052   45.7988 C.ar    1  ZINC000919225759    0.0900
      3 C3         -0.5224    2.6191   47.0308 C.ar    1  ZINC000919225759   -0.1200
      4 C4         -0.3306    3.5328   48.1757 C.2     1  ZINC000919225759    0.5200
      5 O5          0.3769    3.2011   49.1056 O.2     1  ZINC000919225759   -0.4700
      6 O6         -0.9405    4.7340   48.1883 O.3     1  ZINC000919225759   -0.3400
      7 C7         -0.8822    5.4899   49.4266 C.3     1  ZINC000919225759    0.1400
      8 H8          0.1305    5.4519   49.8282 H       1  ZINC000919225759    0.1100
      9 C9         -1.2684    6.9451   49.1545 C.3     1  ZINC000919225759   -0.1700
     10 C10        -1.8411    4.8938   50.4247 C.ar    1  ZINC000919225759   -0.1000
     11 C11        -3.1942    4.8560   50.1454 C.ar    1  ZINC000919225759   -0.0400
     12 C12        -4.0740    4.3092   51.0611 C.ar    1  ZINC000919225759   -0.1100
     13 C13        -3.6004    3.7998   52.2554 C.ar    1  ZINC000919225759   -0.0500
     14 C14        -2.2467    3.8367   52.5343 C.ar    1  ZINC000919225759   -0.0400
     15 N15        -1.7396    3.2917   53.8136 N.pl3   1  ZINC000919225759    0.0300
     16 O16        -2.5148    2.8106   54.6205 O.2     1  ZINC000919225759   -0.1500
     17 O17        -0.5471    3.3242   54.0593 O.2     1  ZINC000919225759   -0.1500
     18 C18        -1.3668    4.3795   51.6171 C.ar    1  ZINC000919225759   -0.0400
     19 C19        -1.2960    1.4656   47.1759 C.ar    1  ZINC000919225759    0.0500
     20 C20        -1.4713    0.6172   46.1027 C.ar    1  ZINC000919225759   -0.0600
     21 N21        -2.2914   -0.6057   46.2544 N.pl3   1  ZINC000919225759    0.0300
     22 O22        -2.8104   -0.8618   47.3261 O.2     1  ZINC000919225759   -0.1300
     23 O23        -2.4470   -1.3559   45.3077 O.2     1  ZINC000919225759   -0.1300
     24 C24        -0.8826    0.9068   44.8843 C.ar    1  ZINC000919225759    0.0400
     25 C25        -0.1193    2.0506   44.7322 C.ar    1  ZINC000919225759   -0.0500
     26 N26         0.5061    2.3526   43.4250 N.pl3   1  ZINC000919225759    0.0200
     27 O27         0.9600    1.4504   42.7441 O.2     1  ZINC000919225759   -0.1300
     28 O28         0.5669    3.5032   43.0302 O.2     1  ZINC000919225759   -0.1200
     29 H29         0.2544    4.9989   45.4299 H       1  ZINC000919225759    0.1200
     30 H30         1.4686    4.3315   46.5472 H       1  ZINC000919225759    0.1200
     31 H31         1.5958    4.0124   44.8007 H       1  ZINC000919225759    0.0900
     32 H32        -2.2810    6.9832   48.7529 H       1  ZINC000919225759    0.0700
     33 H33        -1.2247    7.5126   50.0841 H       1  ZINC000919225759    0.0900
     34 H34        -0.5749    7.3763   48.4326 H       1  ZINC000919225759    0.0700
     35 H35        -3.5643    5.2541   49.2122 H       1  ZINC000919225759    0.1500
     36 H36        -5.1314    4.2803   50.8431 H       1  ZINC000919225759    0.1500
     37 H37        -4.2878    3.3732   52.9710 H       1  ZINC000919225759    0.1600
     38 H38        -0.3093    4.4084   51.8349 H       1  ZINC000919225759    0.1600
     39 H39        -1.7557    1.2381   48.1263 H       1  ZINC000919225759    0.1900
     40 H40        -1.0228    0.2389   44.0472 H       1  ZINC000919225759    0.1900
@<TRIPOS>BOND
     1     1     2    1
     2     1    29    1
     3     1    30    1
     4     1    31    1
     5     2    25   ar
     6     2     3   ar
     7     3     4    1
     8     3    19   ar
     9     4     5    2
    10     4     6    1
    11     6     7    1
    12     7     8    1
    13     7     9    1
    14     7    10    1
    15     9    32    1
    16     9    33    1
    17     9    34    1
    18    10    18   ar
    19    10    11   ar
    20    11    12   ar
    21    11    35    1
    22    12    13   ar
    23    12    36    1
    24    13    14   ar
    25    13    37    1
    26    14    15    1
    27    14    18   ar
    28    15    16    2
    29    15    17    2
    30    18    38    1
    31    19    20   ar
    32    19    39    1
    33    20    21    1
    34    20    24   ar
    35    21    22    2
    36    21    23    2
    37    24    25   ar
    38    24    40    1
    39    25    26    1
    40    26    27    2
    41    26    28    2
@<TRIPOS>SUBSTRUCTURE
     1 ZINC000919225759        1 TEMP              0 ****  ****    0 ROOT


##########                                Name:    ZINC000373715094
##########                DOCK_Rotatable_Bonds:                   6
##########                         Heavy_Atoms:                  27
##########                    Molecular_Weight:             362.431
##########                DOCK_Rotatable_Bonds:                   6
##########                       Formal_Charge:           0.0299999
##########                     HBond_Acceptors:                   6
##########                        HBond_Donors:                   2
##########                         Heavy_Atoms:                  27
##########                          Grid_Score:          -32.065659
##########                     Grid_vdw_energy:          -28.883841
##########                      Grid_es_energy:           -3.181818
##########           Internal_energy_repulsive:            8.079703

@<TRIPOS>MOLECULE
ZINC000373715094
 49 52 1 0 0
SMALL
USER_CHARGES


@<TRIPOS>ATOM
      1 C1         -5.5743    5.5226   55.5083 C.3     1  ZINC000373715094    0.0900
      2 N2         -5.4275    5.4714   54.0515 N.am    1  ZINC000373715094   -0.6100
      3 C3         -5.1985    6.5438   53.2742 C.2     1  ZINC000373715094    0.5200
      4 O4         -5.0918    7.6830   53.6762 O.2     1  ZINC000373715094   -0.5200
      5 C5         -5.0931    6.1229   51.8249 C.3     1  ZINC000373715094   -0.1600
      6 C6         -4.8775    4.5931   51.8891 C.3     1  ZINC000373715094   -0.1000
      7 H7         -5.4006    4.0909   51.0754 H       1  ZINC000373715094    0.1100
      8 C8         -3.3868    4.2489   51.8727 C.3     1  ZINC000373715094    0.1300
      9 N9         -2.9534    4.0208   50.4921 N.am    1  ZINC000373715094   -0.7300
     10 C10        -1.7537    3.4579   50.2466 C.2     1  ZINC000373715094    0.5200
     11 O11        -1.0334    3.1390   51.1688 O.2     1  ZINC000373715094   -0.5200
     12 C12        -1.3072    3.2249   48.8262 C.3     1  ZINC000373715094   -0.0600
     13 C13        -1.8596    1.9116   48.3351 C.2     1  ZINC000373715094    0.1200
     14 N14        -2.6040    1.0889   49.0172 N.2     1  ZINC000373715094   -0.2300
     15 N15        -2.9270   -0.0263   48.2373 N.pl3   1  ZINC000373715094   -0.5100
     16 C16        -2.3516    0.1099   47.0009 C.ar    1  ZINC000373715094    0.1300
     17 C17        -2.3381   -0.6757   45.8513 C.ar    1  ZINC000373715094   -0.1400
     18 C18        -1.6531   -0.2534   44.7472 C.ar    1  ZINC000373715094   -0.0700
     19 C19        -0.9659    0.9539   44.7546 C.ar    1  ZINC000373715094   -0.1600
     20 C20        -0.9615    1.7448   45.8671 C.ar    1  ZINC000373715094   -0.0400
     21 C21        -1.6612    1.3376   47.0081 C.ar    1  ZINC000373715094   -0.1600
     22 C22        -5.5054    4.2417   53.2542 C.3     1  ZINC000373715094    0.1800
     23 H23        -4.9430    3.4401   53.7329 H       1  ZINC000373715094    0.1000
     24 C24        -6.9452    3.8337   53.0764 C.ar    1  ZINC000373715094   -0.1000
     25 C25        -7.9450    4.7868   53.1271 C.ar    1  ZINC000373715094   -0.1000
     26 C26        -9.2657    4.4125   52.9640 C.ar    1  ZINC000373715094   -0.1200
     27 C27        -9.5864    3.0850   52.7497 C.ar    1  ZINC000373715094   -0.1100
     28 C28        -8.5865    2.1320   52.6980 C.ar    1  ZINC000373715094   -0.1200
     29 C29        -7.2655    2.5069   52.8568 C.ar    1  ZINC000373715094   -0.1100
     30 H30        -4.5973    5.4019   55.9764 H       1  ZINC000373715094    0.0600
     31 H31        -5.9992    6.4839   55.7972 H       1  ZINC000373715094    0.0800
     32 H32        -6.2354    4.7201   55.8353 H       1  ZINC000373715094    0.0700
     33 H33        -6.0147    6.3562   51.2919 H       1  ZINC000373715094    0.1100
     34 H34        -4.2418    6.6083   51.3477 H       1  ZINC000373715094    0.1100
     35 H35        -2.8185    5.0751   52.3002 H       1  ZINC000373715094    0.0700
     36 H36        -3.2155    3.3475   52.4610 H       1  ZINC000373715094    0.0800
     37 H37        -3.5301    4.2748   49.7545 H       1  ZINC000373715094    0.4000
     38 H38        -1.6737    4.0328   48.1930 H       1  ZINC000373715094    0.1200
     39 H39        -0.2182    3.1983   48.7874 H       1  ZINC000373715094    0.1200
     40 H40        -3.4708   -0.7761   48.5254 H       1  ZINC000373715094    0.4400
     41 H41        -2.8676   -1.6168   45.8326 H       1  ZINC000373715094    0.1300
     42 H42        -1.6454   -0.8661   43.8578 H       1  ZINC000373715094    0.1300
     43 H43        -0.4298    1.2697   43.8718 H       1  ZINC000373715094    0.1300
     44 H44        -0.4249    2.6821   45.8649 H       1  ZINC000373715094    0.1300
     45 H45        -7.6944    5.8239   53.2946 H       1  ZINC000373715094    0.1200
     46 H46       -10.0469    5.1571   53.0045 H       1  ZINC000373715094    0.1200
     47 H47       -10.6184    2.7925   52.6230 H       1  ZINC000373715094    0.1200
     48 H48        -8.8371    1.0949   52.5309 H       1  ZINC000373715094    0.1300
     49 H49        -6.4842    1.7624   52.8164 H       1  ZINC000373715094    0.1300
@<TRIPOS>BOND
     1     1     2    1
     2     1    30    1
     3     1    31    1
     4     1    32    1
     5     2    22    1
     6     2     3   am
     7     3     4    2
     8     3     5    1
     9     5     6    1
    10     5    33    1
    11     5    34    1
    12     6     7    1
    13     6     8    1
    14     6    22    1
    15     8     9    1
    16     8    35    1
    17     8    36    1
    18     9    10   am
    19     9    37    1
    20    10    11    2
    21    10    12    1
    22    12    13    1
    23    12    38    1
    24    12    39    1
    25    13    21    1
    26    13    14    2
    27    14    15    1
    28    15    16    1
    29    15    40    1
    30    16    21   ar
    31    16    17   ar
    32    17    18   ar
    33    17    41    1
    34    18    19   ar
    35    18    42    1
    36    19    20   ar
    37    19    43    1
    38    20    21   ar
    39    20    44    1
    40    22    23    1
    41    22    24    1
    42    24    29   ar
    43    24    25   ar
    44    25    26   ar
    45    25    45    1
    46    26    27   ar
    47    26    46    1
    48    27    28   ar
    49    27    47    1
    50    28    29   ar
    51    28    48    1
    52    29    49    1
@<TRIPOS>SUBSTRUCTURE
     1 ZINC000373715094        1 TEMP              0 ****  ****    0 ROOT


##########                                Name:     oleObject17.pdb
##########                DOCK_Rotatable_Bonds:                   8
##########                         Heavy_Atoms:                  29
##########                    Molecular_Weight:             435.393
##########                DOCK_Rotatable_Bonds:                   8
##########                       Formal_Charge:         0.000400059
##########                     HBond_Acceptors:                   6
##########                        HBond_Donors:                   0
##########                         Heavy_Atoms:                  29
##########                          Grid_Score:          -32.062057
##########                     Grid_vdw_energy:          -32.063419
##########                      Grid_es_energy:            0.001363
##########           Internal_energy_repulsive:           17.558830

@<TRIPOS>MOLECULE
oleObject17.pdb
 57 59 1 0 0
SMALL
NO_CHARGES


@<TRIPOS>ATOM
      1 C          -7.7738    2.1558   55.2588 C.3     1  UNL         0.0391
      2 C          -8.8624    1.4101   54.4838 C.ar    1  UNL        -0.0277
      3 C         -10.0048    0.8511   55.1104 C.ar    1  UNL        -0.0463
      4 C         -10.9476    0.1502   54.3327 C.ar    1  UNL        -0.0590
      5 C         -10.7697    0.0035   52.9494 C.ar    1  UNL        -0.0620
      6 C          -9.6503    0.5704   52.3261 C.ar    1  UNL        -0.0619
      7 C          -8.7073    1.2736   53.0902 C.ar    1  UNL        -0.0572
      8 C         -10.2575    0.9871   56.6079 C.3     1  UNL        -0.0394
      9 N          -7.4381    3.4639   54.6567 N.am    1  UNL        -0.3003
     10 C          -6.1111    3.8498   54.4684 C.2     1  UNL         0.2175
     11 O          -5.2249    3.0129   54.5014 O.2     1  UNL        -0.2772
     12 C          -5.8760    5.2434   53.8280 C.3     1  UNL         0.0384
     13 C          -6.2558    5.2835   52.3262 C.3     1  UNL        -0.0289
     14 C          -5.2747    4.4542   51.4750 C.3     1  UNL        -0.0010
     15 N          -3.8781    4.9122   51.6435 N.4     1  UNL        -0.3010
     16 C          -3.4197    4.9795   53.0510 C.3     1  UNL        -0.0010
     17 C          -4.4103    5.7366   53.9729 C.3     1  UNL        -0.0289
     18 C          -2.9245    4.2323   50.7373 C.3     1  UNL         0.0222
     19 C          -2.7505    2.7255   51.0379 C.3     1  UNL         0.0661
     20 O          -1.6440    2.2335   50.2631 O.3     1  UNL        -0.3432
     21 C          -1.7712    1.8291   48.9480 C.ar    1  UNL         0.0937
     22 C          -2.6107    0.7573   48.5745 C.ar    1  UNL        -0.0288
     23 C          -2.7197    0.3812   47.2256 C.ar    1  UNL        -0.0408
     24 C          -1.9907    1.0693   46.2432 C.ar    1  UNL         0.0422
     25 C          -1.1506    2.1335   46.6067 C.ar    1  UNL        -0.0221
     26 C          -1.0403    2.5124   47.9550 C.ar    1  UNL         0.0723
     27 CL          0.0135    3.8499   48.3748 Cl      1  UNL        -0.0814
     28 CL         -2.1292    0.5989   44.5626 Cl      1  UNL        -0.0843
     29 C          -8.5794    4.3197   54.2842 C.3     1  UNL         0.0031
     30 H          -6.8558    1.5612   55.3218 H       1  UNL         0.0520
     31 H          -8.1234    2.3020   56.2885 H       1  UNL         0.0520
     32 H         -11.8252   -0.2859   54.8011 H       1  UNL         0.0626
     33 H         -11.5020   -0.5427   52.3614 H       1  UNL         0.0623
     34 H          -9.5121    0.4640   51.2540 H       1  UNL         0.0623
     35 H          -7.8411    1.7049   52.5971 H       1  UNL         0.0626
     36 H         -10.2362    2.0385   56.9197 H       1  UNL         0.0280
     37 H          -9.5050    0.4424   57.1893 H       1  UNL         0.0280
     38 H         -11.2391    0.5876   56.8911 H       1  UNL         0.0280
     39 H          -6.5140    5.9566   54.3631 H       1  UNL         0.0402
     40 H          -6.2363    6.3238   51.9764 H       1  UNL         0.0288
     41 H          -7.2779    4.9249   52.1657 H       1  UNL         0.0288
     42 H          -5.5680    4.5293   50.4200 H       1  UNL         0.0431
     43 H          -5.3629    3.4030   51.7722 H       1  UNL         0.0431
     44 H          -2.4444    5.4806   53.0967 H       1  UNL         0.0431
     45 H          -3.2779    3.9660   53.4427 H       1  UNL         0.0431
     46 H          -4.3716    6.8038   53.7189 H       1  UNL         0.0288
     47 H          -4.0844    5.6538   55.0176 H       1  UNL         0.0288
     48 H          -1.9437    4.7204   50.8043 H       1  UNL         0.0455
     49 H          -3.2707    4.3425   49.7016 H       1  UNL         0.0455
     50 H          -3.6604    2.1813   50.7602 H       1  UNL         0.0586
     51 H          -2.5592    2.5753   52.1073 H       1  UNL         0.0586
     52 H          -3.1808    0.2088   49.3172 H       1  UNL         0.0651
     53 H          -3.3682   -0.4437   46.9441 H       1  UNL         0.0639
     54 H          -0.5866    2.6649   45.8454 H       1  UNL         0.0655
     55 H          -9.4055    4.1806   54.9930 H       1  UNL         0.0433
     56 H          -8.9292    4.0640   53.2768 H       1  UNL         0.0433
     57 H          -8.2849    5.3761   54.3082 H       1  UNL         0.0433
@<TRIPOS>BOND
     1     1     2    1
     2     1     9    1
     3     1    30    1
     4     1    31    1
     5     2     3   ar
     6     2     7   ar
     7     3     4   ar
     8     3     8    1
     9     4     5   ar
    10     4    32    1
    11     5     6   ar
    12     5    33    1
    13     6     7   ar
    14     6    34    1
    15     7    35    1
    16     8    36    1
    17     8    37    1
    18     8    38    1
    19     9    10   am
    20     9    29    1
    21    10    11    2
    22    10    12    1
    23    12    13    1
    24    12    17    1
    25    12    39    1
    26    13    14    1
    27    13    40    1
    28    13    41    1
    29    14    15    1
    30    14    42    1
    31    14    43    1
    32    15    16    1
    33    15    18    1
    34    16    17    1
    35    16    44    1
    36    16    45    1
    37    17    46    1
    38    17    47    1
    39    18    19    1
    40    18    48    1
    41    18    49    1
    42    19    20    1
    43    19    50    1
    44    19    51    1
    45    20    21    1
    46    21    22   ar
    47    21    26   ar
    48    22    23   ar
    49    22    52    1
    50    23    24   ar
    51    23    53    1
    52    24    25   ar
    53    24    28    1
    54    25    26   ar
    55    25    54    1
    56    26    27    1
    57    29    55    1
    58    29    56    1
    59    29    57    1
@<TRIPOS>SUBSTRUCTURE
     1 UNL         1 TEMP              0 ****  ****    0 ROOT


##########                                Name:    ZINC001342629575
##########                DOCK_Rotatable_Bonds:                   9
##########                         Heavy_Atoms:                  29
##########                    Molecular_Weight:             396.533
##########                DOCK_Rotatable_Bonds:                   9
##########                       Formal_Charge:         -0.00999976
##########                     HBond_Acceptors:                   6
##########                        HBond_Donors:                   0
##########                         Heavy_Atoms:                  29
##########                          Grid_Score:          -32.061268
##########                     Grid_vdw_energy:          -31.506454
##########                      Grid_es_energy:           -0.554813
##########           Internal_energy_repulsive:           21.315432

@<TRIPOS>MOLECULE
ZINC001342629575
 61 64 1 0 0
SMALL
USER_CHARGES


@<TRIPOS>ATOM
      1 C1          0.1571    2.1917   44.1956 C.2     1  ZINC001342629575   -0.1800
      2 C2         -0.0589    1.5809   45.3342 C.2     1  ZINC001342629575   -0.1600
      3 C3         -0.8346    2.2729   46.4252 C.3     1  ZINC001342629575   -0.0800
      4 C4         -0.3882    1.7368   47.7869 C.3     1  ZINC001342629575    0.0500
      5 H5          0.6857    1.8840   47.9011 H       1  ZINC001342629575    0.0900
      6 C6         -1.1156    2.4754   48.8806 C.2     1  ZINC001342629575    0.2000
      7 N7         -2.4021    2.4778   49.0874 N.2     1  ZINC001342629575   -0.2700
      8 N8         -2.6837    3.2118   50.1043 N.2     1  ZINC001342629575   -0.3000
      9 C9         -1.5829    3.7213   50.6048 C.2     1  ZINC001342629575    0.3400
     10 N10        -1.4891    4.5615   51.7029 N.3     1  ZINC001342629575   -0.4300
     11 C11        -1.5240    3.7872   52.9702 C.3     1  ZINC001342629575    0.0400
     12 C12        -1.9519    4.8133   54.0413 C.3     1  ZINC001342629575   -0.1200
     13 C13        -2.7062    5.9123   53.2650 C.3     1  ZINC001342629575   -0.1200
     14 C14        -2.6708    5.4577   51.7900 C.3     1  ZINC001342629575    0.0700
     15 H15        -3.5805    4.9128   51.5382 H       1  ZINC001342629575    0.0900
     16 C16        -2.4985    6.6634   50.8640 C.3     1  ZINC001342629575    0.1000
     17 H17        -2.3490    7.5661   51.4564 H       1  ZINC001342629575    0.0700
     18 C18        -3.7493    6.8227   49.9734 C.3     1  ZINC001342629575   -0.1400
     19 C19        -3.1322    7.2337   48.6088 C.3     1  ZINC001342629575   -0.1600
     20 C20        -1.8082    6.4288   48.6304 C.3     1  ZINC001342629575    0.0500
     21 O21        -1.3740    6.4567   50.0013 O.3     1  ZINC001342629575   -0.3700
     22 N22        -0.5475    3.2628   49.8435 N.pl3   1  ZINC001342629575   -0.4600
     23 C23         0.8766    3.5603   50.0158 C.3     1  ZINC001342629575    0.1100
     24 C24         1.3217    4.5601   48.9466 C.3     1  ZINC001342629575    0.0500
     25 O25         2.7300    4.7771   49.0542 O.3     1  ZINC001342629575   -0.3800
     26 C26         3.2506    5.7010   48.0964 C.3     1  ZINC001342629575    0.0300
     27 C27        -0.7060    0.2664   47.8766 C.ar    1  ZINC001342629575   -0.0900
     28 C28        -1.9826   -0.1833   47.5955 C.ar    1  ZINC001342629575   -0.0900
     29 C29        -2.2740   -1.5320   47.6776 C.ar    1  ZINC001342629575   -0.1200
     30 C30        -1.2888   -2.4313   48.0406 C.ar    1  ZINC001342629575   -0.1200
     31 C31        -0.0120   -1.9817   48.3208 C.ar    1  ZINC001342629575   -0.1200
     32 C32         0.2805   -0.6334   48.2344 C.ar    1  ZINC001342629575   -0.1100
     33 H33         0.7131    1.6958   43.4137 H       1  ZINC001342629575    0.1000
     34 H34        -0.2245    3.1895   44.0371 H       1  ZINC001342629575    0.1000
     35 H35         0.3190    0.5814   45.4910 H       1  ZINC001342629575    0.1000
     36 H36        -0.6488    3.3459   46.3786 H       1  ZINC001342629575    0.0900
     37 H37        -1.8993    2.0824   46.2909 H       1  ZINC001342629575    0.0800
     38 H38        -2.2543    2.9809   52.9031 H       1  ZINC001342629575    0.0600
     39 H39        -0.5359    3.3882   53.1993 H       1  ZINC001342629575    0.0800
     40 H40        -2.6116    4.3453   54.7719 H       1  ZINC001342629575    0.0800
     41 H41        -1.0755    5.2327   54.5354 H       1  ZINC001342629575    0.0800
     42 H42        -3.7362    5.9836   53.6144 H       1  ZINC001342629575    0.0800
     43 H43        -2.2001    6.8710   53.3780 H       1  ZINC001342629575    0.0800
     44 H44        -4.2870    5.8785   49.8872 H       1  ZINC001342629575    0.0900
     45 H45        -4.4010    7.6080   50.3566 H       1  ZINC001342629575    0.0800
     46 H46        -3.7679    6.9219   47.7801 H       1  ZINC001342629575    0.0800
     47 H47        -2.9394    8.3060   48.5717 H       1  ZINC001342629575    0.0800
     48 H48        -1.9845    5.4021   48.3094 H       1  ZINC001342629575    0.0600
     49 H49        -1.0659    6.9043   47.9895 H       1  ZINC001342629575    0.0900
     50 H50         1.0413    3.9884   51.0046 H       1  ZINC001342629575    0.1000
     51 H51         1.4543    2.6413   49.9169 H       1  ZINC001342629575    0.1100
     52 H52         1.0898    4.1626   47.9585 H       1  ZINC001342629575    0.0600
     53 H53         0.7965    5.5043   49.0909 H       1  ZINC001342629575    0.0600
     54 H54         4.3249    5.8111   48.2442 H       1  ZINC001342629575    0.0900
     55 H55         3.0585    5.3283   47.0903 H       1  ZINC001342629575    0.0400
     56 H56         2.7654    6.6687   48.2240 H       1  ZINC001342629575    0.0400
     57 H57        -2.7523    0.5192   47.3120 H       1  ZINC001342629575    0.1300
     58 H58        -3.2715   -1.8833   47.4587 H       1  ZINC001342629575    0.1200
     59 H59        -1.5166   -3.4849   48.1055 H       1  ZINC001342629575    0.1200
     60 H60         0.7577   -2.6841   48.6046 H       1  ZINC001342629575    0.1200
     61 H61         1.2781   -0.2822   48.4533 H       1  ZINC001342629575    0.1200
@<TRIPOS>BOND
     1     1     2    2
     2     1    33    1
     3     1    34    1
     4     2     3    1
     5     2    35    1
     6     3     4    1
     7     3    36    1
     8     3    37    1
     9     4     5    1
    10     4     6    1
    11     4    27    1
    12     6    22    1
    13     6     7    2
    14     7     8    1
    15     8     9    2
    16     9    10    1
    17     9    22    1
    18    10    14    1
    19    10    11    1
    20    11    12    1
    21    11    38    1
    22    11    39    1
    23    12    13    1
    24    12    40    1
    25    12    41    1
    26    13    14    1
    27    13    42    1
    28    13    43    1
    29    14    15    1
    30    14    16    1
    31    16    17    1
    32    16    21    1
    33    16    18    1
    34    18    19    1
    35    18    44    1
    36    18    45    1
    37    19    20    1
    38    19    46    1
    39    19    47    1
    40    20    21    1
    41    20    48    1
    42    20    49    1
    43    22    23    1
    44    23    24    1
    45    23    50    1
    46    23    51    1
    47    24    25    1
    48    24    52    1
    49    24    53    1
    50    25    26    1
    51    26    54    1
    52    26    55    1
    53    26    56    1
    54    27    32   ar
    55    27    28   ar
    56    28    29   ar
    57    28    57    1
    58    29    30   ar
    59    29    58    1
    60    30    31   ar
    61    30    59    1
    62    31    32   ar
    63    31    60    1
    64    32    61    1
@<TRIPOS>SUBSTRUCTURE
     1 ZINC001342629575        1 TEMP              0 ****  ****    0 ROOT


##########                                Name:    ZINC000564088286
##########                DOCK_Rotatable_Bonds:                   6
##########                         Heavy_Atoms:                  25
##########                    Molecular_Weight:             398.934
##########                DOCK_Rotatable_Bonds:                   6
##########                       Formal_Charge:               -0.05
##########                     HBond_Acceptors:                   8
##########                        HBond_Donors:                   1
##########                         Heavy_Atoms:                  25
##########                          Grid_Score:          -32.051292
##########                     Grid_vdw_energy:          -32.963146
##########                      Grid_es_energy:            0.911855
##########           Internal_energy_repulsive:           12.697183

@<TRIPOS>MOLECULE
ZINC000564088286
 44 46 1 0 0
SMALL
USER_CHARGES


@<TRIPOS>ATOM
      1 C1         -4.7629    1.4173   56.6033 C.3     1  ZINC000564088286   -0.1600
      2 C2         -4.2202    2.8479   56.6073 C.3     1  ZINC000564088286    0.1100
      3 N3         -5.2952    3.7789   56.2557 N.am    1  ZINC000564088286   -1.1200
      4 S4         -4.9460    5.1761   55.4382 S.o2    1  ZINC000564088286    2.7000
      5 O5         -6.1937    5.7757   55.1174 O.2     1  ZINC000564088286   -0.9600
      6 O6         -3.9356    5.8375   56.1872 O.2     1  ZINC000564088286   -0.9600
      7 C7         -4.2078    4.7137   53.9066 C.ar    1  ZINC000564088286   -0.6800
      8 C8         -2.8627    4.3990   53.8548 C.ar    1  ZINC000564088286   -0.0200
      9 C9         -2.2835    4.0362   52.6532 C.ar    1  ZINC000564088286   -0.1300
     10 C10        -3.0495    3.9877   51.5035 C.ar    1  ZINC000564088286   -0.0100
     11 C11        -2.4180    3.5927   50.1935 C.3     1  ZINC000564088286   -0.1100
     12 C12        -2.8073    2.1768   49.8549 C.2     1  ZINC000564088286    0.5200
     13 O13        -3.7696    1.6680   50.3898 O.2     1  ZINC000564088286   -0.5200
     14 N14        -2.0863    1.4759   48.9575 N.am    1  ZINC000564088286   -0.6200
     15 C15        -2.4490    0.0929   48.6127 C.3     1  ZINC000564088286    0.1200
     16 C16        -2.8676    0.0510   47.1398 C.3     1  ZINC000564088286   -0.0700
     17 C17        -1.8671    0.8362   46.3184 C.2     1  ZINC000564088286   -0.1600
     18 C18        -1.0011    1.7410   46.8118 C.2     1  ZINC000564088286   -0.1200
     19 C19        -0.1936    2.3318   45.8444 C.2     1  ZINC000564088286   -0.1100
     20 C20        -0.3912    1.9140   44.5969 C.2     1  ZINC000564088286   -0.1500
     21 Cl21        0.4757    2.4789   43.2030 Cl      1  ZINC000564088286   -0.0100
     22 S22        -1.6637    0.7026   44.5762 S.3     1  ZINC000564088286    0.1600
     23 C23        -0.9206    2.0755   48.2930 C.3     1  ZINC000564088286    0.1700
     24 C24        -4.3949    4.3011   51.5556 C.ar    1  ZINC000564088286   -0.1300
     25 C25        -4.9749    4.6601   52.7579 C.ar    1  ZINC000564088286   -0.0200
     26 H26        -5.5695    1.3327   57.3316 H       1  ZINC000564088286    0.0600
     27 H27        -5.1427    1.1756   55.6107 H       1  ZINC000564088286    0.0600
     28 H28        -3.9630    0.7245   56.8649 H       1  ZINC000564088286    0.0700
     29 H29        -3.8403    3.0896   57.5999 H       1  ZINC000564088286    0.0800
     30 H30        -3.4135    2.9324   55.8790 H       1  ZINC000564088286    0.0700
     31 H31        -6.2115    3.5770   56.5017 H       1  ZINC000564088286    0.4200
     32 H32        -2.2643    4.4369   54.7530 H       1  ZINC000564088286    0.1400
     33 H33        -1.2325    3.7910   52.6127 H       1  ZINC000564088286    0.1300
     34 H34        -2.7641    4.2627   49.4066 H       1  ZINC000564088286    0.1100
     35 H35        -1.3334    3.6609   50.2778 H       1  ZINC000564088286    0.1100
     36 H36        -1.5903   -0.5602   48.7679 H       1  ZINC000564088286    0.0800
     37 H37        -3.2791   -0.2346   49.2386 H       1  ZINC000564088286    0.1100
     38 H38        -2.8892   -0.9834   46.7963 H       1  ZINC000564088286    0.0900
     39 H39        -3.8574    0.4937   47.0293 H       1  ZINC000564088286    0.0900
     40 H40         0.5450    3.0805   46.0902 H       1  ZINC000564088286    0.1500
     41 H41        -0.9314    3.1570   48.4283 H       1  ZINC000564088286    0.1000
     42 H42        -0.0067    1.6589   48.7165 H       1  ZINC000564088286    0.0900
     43 H43        -4.9933    4.2628   50.6574 H       1  ZINC000564088286    0.1300
     44 H44        -6.0259    4.9050   52.7986 H       1  ZINC000564088286    0.1400
@<TRIPOS>BOND
     1     1     2    1
     2     1    26    1
     3     1    27    1
     4     1    28    1
     5     2     3    1
     6     2    29    1
     7     2    30    1
     8     3     4   am
     9     3    31    1
    10     4     5    2
    11     4     6    2
    12     4     7    1
    13     7    25   ar
    14     7     8   ar
    15     8     9   ar
    16     8    32    1
    17     9    10   ar
    18     9    33    1
    19    10    11    1
    20    10    24   ar
    21    11    12    1
    22    11    34    1
    23    11    35    1
    24    12    13    2
    25    12    14   am
    26    14    23    1
    27    14    15    1
    28    15    16    1
    29    15    36    1
    30    15    37    1
    31    16    17    1
    32    16    38    1
    33    16    39    1
    34    17    22    1
    35    17    18    2
    36    18    19    1
    37    18    23    1
    38    19    20    2
    39    19    40    1
    40    20    21    1
    41    20    22    1
    42    23    41    1
    43    23    42    1
    44    24    25   ar
    45    24    43    1
    46    25    44    1
@<TRIPOS>SUBSTRUCTURE
     1 ZINC000564088286        1 TEMP              0 ****  ****    0 ROOT


##########                                Name:    ZINC000355549087
##########                DOCK_Rotatable_Bonds:                   9
##########                         Heavy_Atoms:                  23
##########                    Molecular_Weight:             336.415
##########                DOCK_Rotatable_Bonds:                   9
##########                       Formal_Charge:        -9.53674e-07
##########                     HBond_Acceptors:                   8
##########                        HBond_Donors:                   4
##########                         Heavy_Atoms:                  23
##########                          Grid_Score:          -32.039696
##########                     Grid_vdw_energy:          -29.010937
##########                      Grid_es_energy:           -3.028761
##########           Internal_energy_repulsive:           12.528865

@<TRIPOS>MOLECULE
ZINC000355549087
 43 44 1 0 0
SMALL
USER_CHARGES


@<TRIPOS>ATOM
      1 C1         -0.4840    2.8022   58.3653 C.3     1  <0>        -0.1500
      2 C2         -1.2074    4.0405   57.8321 C.3     1  <0>        -0.1200
      3 C3         -0.9096    4.2020   56.3401 C.3     1  <0>        -0.1000
      4 H4          0.1673    4.1558   56.1775 H       1  <0>         0.0800
      5 C5         -1.4408    5.5530   55.8572 C.3     1  <0>        -0.1500
      6 C6         -1.5920    3.0769   55.5592 C.3     1  <0>         0.0900
      7 H7         -1.2370    2.1135   55.9252 H       1  <0>         0.1000
      8 O8         -3.0070    3.1629   55.7387 O.3     1  <0>        -0.3500
      9 C9         -3.5960    1.9820   56.2868 C.3     1  <0>         0.0200
     10 C10        -1.2623    3.2104   54.0948 C.2     1  <0>         0.5100
     11 O11        -0.1066    3.3067   53.7398 O.2     1  <0>        -0.4800
     12 N12        -2.2516    3.2228   53.1796 N.am    1  <0>        -0.6200
     13 C13        -1.9474    3.3442   51.8291 C.2     1  <0>         0.2400
     14 N14        -2.2180    2.4549   50.9278 N.2     1  <0>        -0.5000
     15 C15        -1.8566    2.7334   49.6822 C.2     1  <0>         0.1700
     16 C16        -2.1014    1.8094   48.5453 C.2     1  <0>        -0.1100
     17 C17        -2.9398    0.7316   48.5468 C.2     1  <0>         0.0600
     18 N18        -2.8884    0.1449   47.3259 N.pl3   1  <0>        -0.5400
     19 C19        -2.0115    0.8482   46.5316 C.2     1  <0>        -0.0600
     20 C20        -1.6726    0.5396   45.1379 C.2     1  <0>         0.5900
     21 N21        -0.9798    1.4294   44.3999 N.am    1  <0>        -0.8600
     22 O22        -2.0173   -0.5199   44.6482 O.2     1  <0>        -0.5300
     23 C23        -1.5160    1.8881   47.2677 C.2     1  <0>        -0.0600
     24 C24        -1.2493    3.9250   49.5378 C.2     1  <0>        -0.3200
     25 S25        -1.1696    4.6917   51.1217 S.3     1  <0>         0.2500
     26 H26        -0.6961    2.6871   59.4283 H       1  <0>         0.0600
     27 H27        -0.8305    1.9195   57.8280 H       1  <0>         0.0600
     28 H28         0.5901    2.9180   58.2197 H       1  <0>         0.0600
     29 H29        -2.2813    3.9247   57.9778 H       1  <0>         0.0600
     30 H30        -0.8608    4.9233   58.3694 H       1  <0>         0.0700
     31 H31        -2.5177    5.5991   56.0199 H       1  <0>         0.0700
     32 H32        -0.9547    6.3545   56.4135 H       1  <0>         0.0600
     33 H33        -1.2287    5.6680   54.7943 H       1  <0>         0.0500
     34 H34        -4.6808    2.0894   56.2995 H       1  <0>         0.0900
     35 H35        -3.3232    1.1222   55.6750 H       1  <0>         0.0500
     36 H36        -3.2337    1.8338   57.3041 H       1  <0>         0.0500
     37 H37        -3.1760    3.1469   53.4636 H       1  <0>         0.4200
     38 H38        -3.5425    0.4022   49.3803 H       1  <0>         0.1800
     39 H39        -3.3877   -0.6418   47.0563 H       1  <0>         0.4200
     40 H40        -0.7548    1.2248   43.4787 H       1  <0>         0.4000
     41 H41        -0.7061    2.2743   44.7898 H       1  <0>         0.4100
     42 H42        -0.8037    2.6279   46.9335 H       1  <0>         0.1500
     43 H43        -0.8788    4.3404   48.6124 H       1  <0>         0.1800
@<TRIPOS>BOND
     1     1     2    1
     2     1    26    1
     3     1    27    1
     4     1    28    1
     5     2     3    1
     6     2    29    1
     7     2    30    1
     8     3     4    1
     9     3     5    1
    10     3     6    1
    11     5    31    1
    12     5    32    1
    13     5    33    1
    14     6     7    1
    15     6     8    1
    16     6    10    1
    17     8     9    1
    18     9    34    1
    19     9    35    1
    20     9    36    1
    21    10    11    2
    22    10    12   am
    23    12    13    1
    24    12    37    1
    25    13    25    1
    26    13    14    2
    27    14    15    1
    28    15    16    1
    29    15    24    2
    30    16    23    1
    31    16    17    2
    32    17    18    1
    33    17    38    1
    34    18    19    1
    35    18    39    1
    36    19    20    1
    37    19    23    2
    38    20    21   am
    39    20    22    2
    40    21    40    1
    41    21    41    1
    42    23    42    1
    43    24    25    1
    44    24    43    1
@<TRIPOS>SUBSTRUCTURE
     1 <0>         1 TEMP              0 ****  ****    0 ROOT


##########                                Name:    ZINC000502834785
##########                DOCK_Rotatable_Bonds:                   9
##########                         Heavy_Atoms:                  26
##########                    Molecular_Weight:             356.468
##########                DOCK_Rotatable_Bonds:                   9
##########                       Formal_Charge:           0.0199998
##########                     HBond_Acceptors:                   6
##########                        HBond_Donors:                   2
##########                         Heavy_Atoms:                  26
##########                          Grid_Score:          -32.013618
##########                     Grid_vdw_energy:          -30.553638
##########                      Grid_es_energy:           -1.459981
##########           Internal_energy_repulsive:           38.701469

@<TRIPOS>MOLECULE
ZINC000502834785
 54 56 1 0 0
SMALL
USER_CHARGES


@<TRIPOS>ATOM
      1 C1         -4.6065    3.9224   55.0357 C.3     1  ZINC000502834785   -0.1800
      2 C2         -3.5161    3.2400   55.8640 C.3     1  ZINC000502834785    0.0800
      3 C3         -4.0920    1.9918   56.5358 C.3     1  ZINC000502834785   -0.1500
      4 O4         -2.4337    2.8648   55.0098 O.3     1  ZINC000502834785   -0.3800
      5 C5         -1.4205    3.8643   54.8822 C.3     1  ZINC000502834785    0.1000
      6 C6         -0.9825    3.9548   53.4431 C.ar    1  ZINC000502834785   -0.0800
      7 C7         -1.8374    3.5529   52.4339 C.ar    1  ZINC000502834785   -0.1000
      8 C8         -1.4356    3.6359   51.1138 C.ar    1  ZINC000502834785   -0.1000
      9 C9         -0.1791    4.1213   50.8030 C.ar    1  ZINC000502834785   -0.1000
     10 C10         0.2591    4.2113   49.3638 C.3     1  ZINC000502834785    0.1600
     11 N11        -0.0684    2.9608   48.6745 N.am    1  ZINC000502834785   -0.7300
     12 C12         0.9016    2.0635   48.4094 C.2     1  ZINC000502834785    0.5100
     13 O13         2.0454    2.2906   48.7426 O.2     1  ZINC000502834785   -0.5200
     14 C14         0.5649    0.7779   47.6987 C.3     1  ZINC000502834785    0.0300
     15 N15        -0.8920    0.6709   47.5441 N.3     1  ZINC000502834785   -0.5000
     16 C16        -1.3214   -0.7438   47.5341 C.3     1  ZINC000502834785    0.0500
     17 C17        -2.5329   -0.7827   46.5696 C.3     1  ZINC000502834785   -0.1300
     18 C18        -2.1001    0.2350   45.4816 C.3     1  ZINC000502834785   -0.1300
     19 C19        -1.3385    1.3059   46.2906 C.3     1  ZINC000502834785    0.1500
     20 H20        -2.0006    2.1425   46.5140 H       1  ZINC000502834785    0.1100
     21 C21        -0.1473    1.7909   45.5051 C.2     1  ZINC000502834785    0.0600
     22 N22         0.5382    1.0890   44.6394 N.2     1  ZINC000502834785   -0.2900
     23 N23         1.5610    1.8997   44.1306 N.pl3   1  ZINC000502834785   -0.4800
     24 C24         1.4645    3.1095   44.7206 C.2     1  ZINC000502834785    0.0600
     25 C25         0.4128    3.0708   45.5712 C.2     1  ZINC000502834785   -0.2600
     26 C26         0.6752    4.5244   51.8121 C.ar    1  ZINC000502834785   -0.1000
     27 C27         0.2720    4.4450   53.1320 C.ar    1  ZINC000502834785   -0.1000
     28 H28        -4.1962    4.8117   54.5571 H       1  ZINC000502834785    0.0600
     29 H29        -4.9681    3.2332   54.2726 H       1  ZINC000502834785    0.0600
     30 H30        -5.4322    4.2087   55.6873 H       1  ZINC000502834785    0.0700
     31 H31        -3.1546    3.9293   56.6271 H       1  ZINC000502834785    0.0600
     32 H32        -4.4535    1.3026   55.7727 H       1  ZINC000502834785    0.0600
     33 H33        -3.3151    1.5057   57.1259 H       1  ZINC000502834785    0.0600
     34 H34        -4.9175    2.2781   57.1874 H       1  ZINC000502834785    0.0700
     35 H35        -1.8179    4.8275   55.2023 H       1  ZINC000502834785    0.0600
     36 H36        -0.5670    3.5982   55.5058 H       1  ZINC000502834785    0.0600
     37 H37        -2.8190    3.1737   52.6767 H       1  ZINC000502834785    0.1300
     38 H38        -2.1032    3.3212   50.3253 H       1  ZINC000502834785    0.1300
     39 H39        -0.2567    5.0397   48.8782 H       1  ZINC000502834785    0.0800
     40 H40         1.3353    4.3784   49.3215 H       1  ZINC000502834785    0.0800
     41 H41        -0.9835    2.7786   48.4090 H       1  ZINC000502834785    0.4000
     42 H42         1.0359    0.7720   46.7158 H       1  ZINC000502834785    0.1000
     43 H43         0.9313   -0.0666   48.2823 H       1  ZINC000502834785    0.0800
     44 H44        -0.5193   -1.3811   47.1618 H       1  ZINC000502834785    0.0400
     45 H45        -1.6223   -1.0562   48.5341 H       1  ZINC000502834785    0.1000
     46 H46        -2.6615   -1.7780   46.1442 H       1  ZINC000502834785    0.0800
     47 H47        -3.4426   -0.4540   47.0719 H       1  ZINC000502834785    0.0800
     48 H48        -1.4421   -0.2372   44.7521 H       1  ZINC000502834785    0.0800
     49 H49        -2.9716    0.6694   44.9918 H       1  ZINC000502834785    0.0800
     50 H50         2.2219    1.6378   43.4706 H       1  ZINC000502834785    0.4400
     51 H51         2.1086    3.9579   44.5427 H       1  ZINC000502834785    0.1800
     52 H52         0.0702    3.8829   46.1955 H       1  ZINC000502834785    0.1500
     53 H53         1.6568    4.9040   51.5693 H       1  ZINC000502834785    0.1300
     54 H54         0.9395    4.7600   53.9204 H       1  ZINC000502834785    0.1200
@<TRIPOS>BOND
     1     1     2    1
     2     1    28    1
     3     1    29    1
     4     1    30    1
     5     2     3    1
     6     2     4    1
     7     2    31    1
     8     3    32    1
     9     3    33    1
    10     3    34    1
    11     4     5    1
    12     5     6    1
    13     5    35    1
    14     5    36    1
    15     6    27   ar
    16     6     7   ar
    17     7     8   ar
    18     7    37    1
    19     8     9   ar
    20     8    38    1
    21     9    10    1
    22     9    26   ar
    23    10    11    1
    24    10    39    1
    25    10    40    1
    26    11    12   am
    27    11    41    1
    28    12    13    2
    29    12    14    1
    30    14    15    1
    31    14    42    1
    32    14    43    1
    33    15    19    1
    34    15    16    1
    35    16    17    1
    36    16    44    1
    37    16    45    1
    38    17    18    1
    39    17    46    1
    40    17    47    1
    41    18    19    1
    42    18    48    1
    43    18    49    1
    44    19    20    1
    45    19    21    1
    46    21    25    1
    47    21    22    2
    48    22    23    1
    49    23    24    1
    50    23    50    1
    51    24    25    2
    52    24    51    1
    53    25    52    1
    54    26    27   ar
    55    26    53    1
    56    27    54    1
@<TRIPOS>SUBSTRUCTURE
     1 ZINC000502834785        1 TEMP              0 ****  ****    0 ROOT


##########                                Name:    ZINC000051488227
##########                DOCK_Rotatable_Bonds:                   8
##########                         Heavy_Atoms:                  30
##########                    Molecular_Weight:             403.478
##########                DOCK_Rotatable_Bonds:                   8
##########                       Formal_Charge:           0.0199996
##########                     HBond_Acceptors:                   5
##########                        HBond_Donors:                   0
##########                         Heavy_Atoms:                  30
##########                          Grid_Score:          -32.004303
##########                     Grid_vdw_energy:          -30.492781
##########                      Grid_es_energy:           -1.511522
##########           Internal_energy_repulsive:           24.611086

@<TRIPOS>MOLECULE
ZINC000051488227
 55 58 1 0 0
SMALL
USER_CHARGES


@<TRIPOS>ATOM
      1 O1          1.2157    3.4359   47.7885 O.2     1  ZINC000051488227   -0.5000
      2 C2          0.1988    3.0359   47.2729 C.2     1  ZINC000051488227    0.4800
      3 O3         -0.9657    3.6584   47.5140 O.3     1  ZINC000051488227   -0.3400
      4 C4         -0.9181    4.8459   48.3482 C.3     1  ZINC000051488227    0.1100
      5 C5         -0.9569    4.4419   49.7996 C.ar    1  ZINC000051488227   -0.1400
      6 C6         -2.1598    4.0989   50.3886 C.ar    1  ZINC000051488227   -0.0500
      7 C7         -2.1981    3.7283   51.7188 C.ar    1  ZINC000051488227   -0.1500
      8 C8         -1.0280    3.7001   52.4637 C.ar    1  ZINC000051488227    0.1500
      9 O9         -1.0630    3.3354   53.7724 O.3     1  ZINC000051488227   -0.3100
     10 C10         0.1642    3.4131   54.5005 C.3     1  ZINC000051488227    0.1100
     11 C11        -0.0720    2.9954   55.9291 C.ar    1  ZINC000051488227    0.1200
     12 C12        -0.6090    3.8999   56.8251 C.ar    1  ZINC000051488227   -0.1500
     13 C13        -0.8229    3.5054   58.1372 C.ar    1  ZINC000051488227   -0.0700
     14 C14        -0.4869    2.2102   58.4998 C.ar    1  ZINC000051488227   -0.1700
     15 C15         0.0463    1.3611   57.5482 C.ar    1  ZINC000051488227    0.1100
     16 N16         0.2311    1.7692   56.3081 N.ar    1  ZINC000051488227   -0.4800
     17 C17         0.1778    4.0442   51.8702 C.ar    1  ZINC000051488227   -0.2100
     18 C18         0.2113    4.4095   50.5384 C.ar    1  ZINC000051488227   -0.0500
     19 C19         0.2390    1.8421   46.3541 C.3     1  ZINC000051488227    0.0000
     20 C20         0.5874    2.2916   44.9585 C.ar    1  ZINC000051488227   -0.0900
     21 C21         0.6208    3.6397   44.6548 C.ar    1  ZINC000051488227   -0.1100
     22 C22         0.9405    4.0521   43.3747 C.ar    1  ZINC000051488227   -0.1200
     23 C23         1.2271    3.1163   42.3984 C.ar    1  ZINC000051488227   -0.1100
     24 C24         1.1946    1.7682   42.7024 C.ar    1  ZINC000051488227   -0.1200
     25 C25         0.8792    1.3560   43.9836 C.ar    1  ZINC000051488227   -0.1000
     26 C26         1.2923    0.8476   46.8520 C.3     1  ZINC000051488227   -0.1400
     27 C27         0.8878    0.3389   48.2381 C.3     1  ZINC000051488227    0.0600
     28 O28        -0.4078   -0.2597   48.1649 O.3     1  ZINC000051488227   -0.3800
     29 C29        -1.4416    0.6357   47.7503 C.3     1  ZINC000051488227    0.0500
     30 C30        -1.1305    1.1563   46.3446 C.3     1  ZINC000051488227   -0.1400
     31 H31         0.0026    5.3939   48.1481 H       1  ZINC000051488227    0.0800
     32 H32        -1.7751    5.4813   48.1249 H       1  ZINC000051488227    0.0800
     33 H33        -3.0705    4.1211   49.8082 H       1  ZINC000051488227    0.1300
     34 H34        -3.1381    3.4612   52.1786 H       1  ZINC000051488227    0.1400
     35 H35         0.8996    2.7500   54.0449 H       1  ZINC000051488227    0.0900
     36 H36         0.5355    4.4377   54.4782 H       1  ZINC000051488227    0.0900
     37 H37        -0.8587    4.9015   56.5077 H       1  ZINC000051488227    0.1400
     38 H38        -1.2409    4.1908   58.8595 H       1  ZINC000051488227    0.1400
     39 H39        -0.6395    1.8690   59.5131 H       1  ZINC000051488227    0.1400
     40 H40         0.3110    0.3507   57.8228 H       1  ZINC000051488227    0.1600
     41 H41         1.0899    4.0233   52.4481 H       1  ZINC000051488227    0.1300
     42 H42         1.1499    4.6771   50.0758 H       1  ZINC000051488227    0.1300
     43 H43         0.3969    4.3708   45.4175 H       1  ZINC000051488227    0.1300
     44 H44         0.9658    5.1053   43.1371 H       1  ZINC000051488227    0.1300
     45 H45         1.4761    3.4385   41.3980 H       1  ZINC000051488227    0.1200
     46 H46         1.4183    1.0371   41.9396 H       1  ZINC000051488227    0.1200
     47 H47         0.8538    0.3027   44.2211 H       1  ZINC000051488227    0.1300
     48 H48         1.3563    0.0077   46.1601 H       1  ZINC000051488227    0.0900
     49 H49         2.2610    1.3436   46.9145 H       1  ZINC000051488227    0.0900
     50 H50         1.6114   -0.4014   48.5791 H       1  ZINC000051488227    0.1000
     51 H51         0.8635    1.1735   48.9388 H       1  ZINC000051488227    0.0500
     52 H52        -2.3959    0.1092   47.7401 H       1  ZINC000051488227    0.1000
     53 H53        -1.4963    1.4741   48.4446 H       1  ZINC000051488227    0.0700
     54 H54        -1.8947    1.8731   46.0443 H       1  ZINC000051488227    0.0900
     55 H55        -1.1156    0.3227   45.6425 H       1  ZINC000051488227    0.0900
@<TRIPOS>BOND
     1     1     2    2
     2     2     3    1
     3     2    19    1
     4     3     4    1
     5     4     5    1
     6     4    31    1
     7     4    32    1
     8     5    18   ar
     9     5     6   ar
    10     6     7   ar
    11     6    33    1
    12     7     8   ar
    13     7    34    1
    14     8     9    1
    15     8    17   ar
    16     9    10    1
    17    10    11    1
    18    10    35    1
    19    10    36    1
    20    11    16   ar
    21    11    12   ar
    22    12    13   ar
    23    12    37    1
    24    13    14   ar
    25    13    38    1
    26    14    15   ar
    27    14    39    1
    28    15    16   ar
    29    15    40    1
    30    17    18   ar
    31    17    41    1
    32    18    42    1
    33    19    30    1
    34    19    20    1
    35    19    26    1
    36    20    25   ar
    37    20    21   ar
    38    21    22   ar
    39    21    43    1
    40    22    23   ar
    41    22    44    1
    42    23    24   ar
    43    23    45    1
    44    24    25   ar
    45    24    46    1
    46    25    47    1
    47    26    27    1
    48    26    48    1
    49    26    49    1
    50    27    28    1
    51    27    50    1
    52    27    51    1
    53    28    29    1
    54    29    30    1
    55    29    52    1
    56    29    53    1
    57    30    54    1
    58    30    55    1
@<TRIPOS>SUBSTRUCTURE
     1 ZINC000051488227        1 TEMP              0 ****  ****    0 ROOT


##########                                Name:    ZINC000479580180
##########                DOCK_Rotatable_Bonds:                   5
##########                         Heavy_Atoms:                  30
##########                    Molecular_Weight:             404.444
##########                DOCK_Rotatable_Bonds:                   5
##########                       Formal_Charge:           0.0299995
##########                     HBond_Acceptors:                   7
##########                        HBond_Donors:                   1
##########                         Heavy_Atoms:                  30
##########                          Grid_Score:          -32.002289
##########                     Grid_vdw_energy:          -30.005056
##########                      Grid_es_energy:           -1.997232
##########           Internal_energy_repulsive:           18.295977

@<TRIPOS>MOLECULE
ZINC000479580180
 51 55 1 0 0
SMALL
USER_CHARGES


@<TRIPOS>ATOM
      1 O1          0.1305    4.0997   51.4709 O.2     1  ZINC000479580180   -0.5200
      2 C2         -0.8290    4.3449   50.7707 C.2     1  ZINC000479580180    0.5200
      3 C3         -0.7511    4.1251   49.2819 C.3     1  ZINC000479580180   -0.0700
      4 C4         -1.4179    2.8199   48.9312 C.2     1  ZINC000479580180   -0.1600
      5 C5         -2.0658    1.9975   49.7671 C.2     1  ZINC000479580180    0.0300
      6 O6         -2.5300    0.9276   49.0975 O.3     1  ZINC000479580180   -0.1900
      7 C7         -2.2069    1.0010   47.7908 C.ar    1  ZINC000479580180    0.0800
      8 C8         -2.4424    0.1738   46.7002 C.ar    1  ZINC000479580180   -0.1400
      9 C9         -1.9702    0.5316   45.4529 C.ar    1  ZINC000479580180    0.1300
     10 F10        -2.2010   -0.2745   44.3935 F       1  ZINC000479580180   -0.1300
     11 C11        -1.2605    1.7126   45.2768 C.ar    1  ZINC000479580180   -0.1600
     12 C12        -1.0186    2.5393   46.3389 C.ar    1  ZINC000479580180   -0.0400
     13 C13        -1.4937    2.1973   47.6037 C.ar    1  ZINC000479580180   -0.1200
     14 N14        -1.9668    4.8086   51.3248 N.am    1  ZINC000479580180   -0.6200
     15 C15        -3.1413    5.0988   50.4911 C.3     1  ZINC000479580180    0.1100
     16 C16        -4.3473    4.3439   51.0586 C.3     1  ZINC000479580180   -0.1300
     17 C17        -4.5207    4.7042   52.5360 C.3     1  ZINC000479580180   -0.0100
     18 C18        -5.7268    3.9896   53.0888 C.2     1  ZINC000479580180    0.3000
     19 N19        -5.8813    3.5919   54.3240 N.2     1  ZINC000479580180   -0.5300
     20 C20        -7.0720    2.9935   54.4620 C.2     1  ZINC000479580180    0.2700
     21 C21        -7.6072    2.4112   55.7179 C.ar    1  ZINC000479580180   -0.0200
     22 C22        -6.8621    2.4797   56.8932 C.ar    1  ZINC000479580180   -0.0800
     23 C23        -7.3648    1.9369   58.0584 C.ar    1  ZINC000479580180   -0.1300
     24 C24        -8.6055    1.3255   58.0606 C.ar    1  ZINC000479580180   -0.1000
     25 C25        -9.3493    1.2548   56.8965 C.ar    1  ZINC000479580180   -0.1200
     26 C26        -8.8589    1.7993   55.7270 C.ar    1  ZINC000479580180   -0.0800
     27 N27        -7.6883    3.0080   53.3005 N.2     1  ZINC000479580180   -0.3000
     28 N28        -6.8312    3.6568   52.3967 N.pl3   1  ZINC000479580180   -0.4800
     29 C29        -3.2743    4.2795   53.3159 C.3     1  ZINC000479580180   -0.1400
     30 C30        -2.0580    5.0280   52.7747 C.3     1  ZINC000479580180    0.1200
     31 H31        -1.2575    4.9416   48.7670 H       1  ZINC000479580180    0.1100
     32 H32         0.2938    4.0936   48.9734 H       1  ZINC000479580180    0.1100
     33 H33        -2.1962    2.1689   50.8254 H       1  ZINC000479580180    0.2100
     34 H34        -2.9930   -0.7466   46.8275 H       1  ZINC000479580180    0.1500
     35 H35        -0.8974    1.9794   44.2953 H       1  ZINC000479580180    0.1400
     36 H36        -0.4658    3.4562   46.1973 H       1  ZINC000479580180    0.1300
     37 H37        -3.3421    6.1701   50.5029 H       1  ZINC000479580180    0.0800
     38 H38        -2.9534    4.7715   49.4686 H       1  ZINC000479580180    0.0900
     39 H39        -5.2448    4.6254   50.5078 H       1  ZINC000479580180    0.0900
     40 H40        -4.1828    3.2706   50.9628 H       1  ZINC000479580180    0.0700
     41 H41        -4.6603    5.7808   52.6331 H       1  ZINC000479580180    0.1200
     42 H42        -5.8930    2.9562   56.8924 H       1  ZINC000479580180    0.1400
     43 H43        -6.7882    1.9893   58.9701 H       1  ZINC000479580180    0.1300
     44 H44        -8.9948    0.9015   58.9745 H       1  ZINC000479580180    0.1300
     45 H45       -10.3173    0.7759   56.9037 H       1  ZINC000479580180    0.1300
     46 H46        -9.4406    1.7437   54.8187 H       1  ZINC000479580180    0.1300
     47 H47        -7.0000    3.8264   51.4567 H       1  ZINC000479580180    0.4400
     48 H48        -3.4081    4.5152   54.3716 H       1  ZINC000479580180    0.0900
     49 H49        -3.1199    3.2069   53.1989 H       1  ZINC000479580180    0.0700
     50 H50        -1.1550    4.6565   53.2593 H       1  ZINC000479580180    0.1000
     51 H51        -2.1682    6.0945   52.9709 H       1  ZINC000479580180    0.0800
@<TRIPOS>BOND
     1     1     2    2
     2     2     3    1
     3     2    14   am
     4     3     4    1
     5     3    31    1
     6     3    32    1
     7     4    13    1
     8     4     5    2
     9     5     6    1
    10     5    33    1
    11     6     7    1
    12     7    13   ar
    13     7     8   ar
    14     8     9   ar
    15     8    34    1
    16     9    10    1
    17     9    11   ar
    18    11    12   ar
    19    11    35    1
    20    12    13   ar
    21    12    36    1
    22    14    30    1
    23    14    15    1
    24    15    16    1
    25    15    37    1
    26    15    38    1
    27    16    17    1
    28    16    39    1
    29    16    40    1
    30    17    18    1
    31    17    29    1
    32    17    41    1
    33    18    28    1
    34    18    19    2
    35    19    20    1
    36    20    21    1
    37    20    27    2
    38    21    26   ar
    39    21    22   ar
    40    22    23   ar
    41    22    42    1
    42    23    24   ar
    43    23    43    1
    44    24    25   ar
    45    24    44    1
    46    25    26   ar
    47    25    45    1
    48    26    46    1
    49    27    28    1
    50    28    47    1
    51    29    30    1
    52    29    48    1
    53    29    49    1
    54    30    50    1
    55    30    51    1
@<TRIPOS>SUBSTRUCTURE
     1 ZINC000479580180        1 TEMP              0 ****  ****    0 ROOT


##########                                Name:    ZINC000194290865
##########                DOCK_Rotatable_Bonds:                   7
##########                         Heavy_Atoms:                  28
##########                    Molecular_Weight:             387.479
##########                DOCK_Rotatable_Bonds:                   7
##########                       Formal_Charge:          -0.0400003
##########                     HBond_Acceptors:                   7
##########                        HBond_Donors:                   0
##########                         Heavy_Atoms:                  28
##########                          Grid_Score:          -32.000473
##########                     Grid_vdw_energy:          -31.086241
##########                      Grid_es_energy:           -0.914233
##########           Internal_energy_repulsive:           40.462296

@<TRIPOS>MOLECULE
ZINC000194290865
 57 59 1 0 0
SMALL
USER_CHARGES


@<TRIPOS>ATOM
      1 C1         -3.4567    4.6764   52.1278 C.3     1  ZINC000194290865   -0.1500
      2 C2         -3.8616    4.7243   50.6532 C.3     1  ZINC000194290865    0.0600
      3 O3         -2.6911    4.5056   49.8224 O.3     1  ZINC000194290865   -0.3600
      4 C4         -1.8091    5.5136   49.7346 C.2     1  ZINC000194290865    0.4700
      5 O5         -2.0452    6.5713   50.2691 O.2     1  ZINC000194290865   -0.4900
      6 C6         -0.5245    5.3264   48.9693 C.3     1  ZINC000194290865   -0.0600
      7 C7         -0.1697    6.6048   48.2072 C.3     1  ZINC000194290865   -0.0700
      8 C8          1.0627    6.3538   47.3359 C.3     1  ZINC000194290865   -0.1700
      9 C9         -1.3472    7.0129   47.3198 C.3     1  ZINC000194290865   -0.1600
     10 C10         0.6216    4.9361   49.9310 C.3     1  ZINC000194290865   -0.1200
     11 C11         0.6657    3.3924   49.8053 C.3     1  ZINC000194290865    0.0900
     12 N12         0.3865    3.1604   48.3694 N.am    1  ZINC000194290865   -0.6100
     13 C13         0.9615    2.2411   47.5688 C.2     1  ZINC000194290865    0.5800
     14 O14         1.8081    1.4917   48.0144 O.2     1  ZINC000194290865   -0.5000
     15 C15         0.5618    2.1445   46.1470 C.ar    1  ZINC000194290865    0.0100
     16 C16        -0.4694    1.2769   45.7385 C.ar    1  ZINC000194290865   -0.2200
     17 C17        -0.8177    1.2156   44.3782 C.ar    1  ZINC000194290865    0.3000
     18 N18        -0.1789    1.9683   43.4957 N.ar    1  ZINC000194290865   -0.4700
     19 C19         0.7885    2.7880   43.8480 C.ar    1  ZINC000194290865    0.2100
     20 C20         1.4718    3.6155   42.7900 C.3     1  ZINC000194290865   -0.1100
     21 C21         1.1902    2.9140   45.1680 C.ar    1  ZINC000194290865   -0.1800
     22 O22        -1.8184    0.3183   44.2709 O.3     1  ZINC000194290865   -0.0800
     23 N23        -2.1218   -0.2025   45.5492 N.2     1  ZINC000194290865   -0.2600
     24 C24        -1.3467    0.3395   46.4385 C.2     1  ZINC000194290865    0.1600
     25 C25        -1.3503    0.0548   47.9184 C.3     1  ZINC000194290865   -0.0400
     26 C26        -2.7635   -0.3303   48.3603 C.3     1  ZINC000194290865   -0.1500
     27 C27        -0.3901   -1.0980   48.2183 C.3     1  ZINC000194290865   -0.1400
     28 C28        -0.6502    4.1403   47.9951 C.3     1  ZINC000194290865    0.1200
     29 H29        -3.0270    3.7008   52.3551 H       1  ZINC000194290865    0.0700
     30 H30        -2.7190    5.4537   52.3274 H       1  ZINC000194290865    0.0700
     31 H31        -4.3354    4.8407   52.7515 H       1  ZINC000194290865    0.0800
     32 H32        -4.5993    3.9470   50.4536 H       1  ZINC000194290865    0.0700
     33 H33        -4.2913    5.7000   50.4260 H       1  ZINC000194290865    0.0700
     34 H34         0.0440    7.4036   48.9174 H       1  ZINC000194290865    0.0900
     35 H35         1.9016    6.0630   47.9681 H       1  ZINC000194290865    0.0500
     36 H36         0.8489    5.5549   46.6257 H       1  ZINC000194290865    0.0800
     37 H37         1.3155    7.2645   46.7930 H       1  ZINC000194290865    0.0600
     38 H38        -2.2252    7.1917   47.9405 H       1  ZINC000194290865    0.0500
     39 H39        -1.0945    7.9237   46.7769 H       1  ZINC000194290865    0.0600
     40 H40        -1.5610    6.2141   46.6096 H       1  ZINC000194290865    0.0800
     41 H41         1.5644    5.3769   49.6069 H       1  ZINC000194290865    0.0900
     42 H42         0.3862    5.2337   50.9528 H       1  ZINC000194290865    0.0900
     43 H43         1.6523    3.0129   50.0716 H       1  ZINC000194290865    0.0900
     44 H44        -0.1041    2.9338   50.4259 H       1  ZINC000194290865    0.0900
     45 H45         0.9488    4.5652   42.6776 H       1  ZINC000194290865    0.0900
     46 H46         2.5044    3.8020   43.0853 H       1  ZINC000194290865    0.0900
     47 H47         1.4564    3.0778   41.8420 H       1  ZINC000194290865    0.0900
     48 H48         1.9864    3.5934   45.4345 H       1  ZINC000194290865    0.1600
     49 H49        -1.0300    0.9447   48.4603 H       1  ZINC000194290865    0.1100
     50 H50        -3.0838   -1.2202   47.8184 H       1  ZINC000194290865    0.0700
     51 H51        -2.7660   -0.5362   49.4307 H       1  ZINC000194290865    0.0700
     52 H52        -3.4475    0.4910   48.1467 H       1  ZINC000194290865    0.0600
     53 H53         0.6167   -0.8235   47.9035 H       1  ZINC000194290865    0.0600
     54 H54        -0.3927   -1.3038   49.2886 H       1  ZINC000194290865    0.0700
     55 H55        -0.7103   -1.9878   47.6764 H       1  ZINC000194290865    0.0600
     56 H56        -1.6380    3.6886   48.0857 H       1  ZINC000194290865    0.0800
     57 H57        -0.4872    4.4808   46.9725 H       1  ZINC000194290865    0.1000
@<TRIPOS>BOND
     1     1     2    1
     2     1    29    1
     3     1    30    1
     4     1    31    1
     5     2     3    1
     6     2    32    1
     7     2    33    1
     8     3     4    1
     9     4     5    2
    10     4     6    1
    11     6    28    1
    12     6     7    1
    13     6    10    1
    14     7     8    1
    15     7     9    1
    16     7    34    1
    17     8    35    1
    18     8    36    1
    19     8    37    1
    20     9    38    1
    21     9    39    1
    22     9    40    1
    23    10    11    1
    24    10    41    1
    25    10    42    1
    26    11    12    1
    27    11    43    1
    28    11    44    1
    29    12    13   am
    30    12    28    1
    31    13    14    2
    32    13    15    1
    33    15    21   ar
    34    15    16   ar
    35    16    24    1
    36    16    17   ar
    37    17    18   ar
    38    17    22    1
    39    18    19   ar
    40    19    20    1
    41    19    21   ar
    42    20    45    1
    43    20    46    1
    44    20    47    1
    45    21    48    1
    46    22    23    1
    47    23    24    2
    48    24    25    1
    49    25    26    1
    50    25    27    1
    51    25    49    1
    52    26    50    1
    53    26    51    1
    54    26    52    1
    55    27    53    1
    56    27    54    1
    57    27    55    1
    58    28    56    1
    59    28    57    1
@<TRIPOS>SUBSTRUCTURE
     1 ZINC000194290865        1 TEMP              0 ****  ****    0 ROOT


##########                                Name:    ZINC000572257265
##########                DOCK_Rotatable_Bonds:                  11
##########                         Heavy_Atoms:                  24
##########                    Molecular_Weight:             393.509
##########                DOCK_Rotatable_Bonds:                  11
##########                       Formal_Charge:          -0.0100002
##########                     HBond_Acceptors:                  11
##########                        HBond_Donors:                   3
##########                         Heavy_Atoms:                  24
##########                          Grid_Score:          -31.992977
##########                     Grid_vdw_energy:          -29.549654
##########                      Grid_es_energy:           -2.443323
##########           Internal_energy_repulsive:            7.389750

@<TRIPOS>MOLECULE
ZINC000572257265
 43 43 1 0 0
SMALL
USER_CHARGES


@<TRIPOS>ATOM
      1 C1         -5.2002    5.7222   51.3615 C.3     1  ZINC000572257265   -0.1300
      2 S2         -4.1578    4.2378   51.3380 S.3     1  ZINC000572257265   -0.2200
      3 C3         -2.5501    4.8767   50.7924 C.3     1  ZINC000572257265   -0.1300
      4 C4         -1.5398    3.7294   50.7301 C.3     1  ZINC000572257265    0.1500
      5 C5         -0.1198    4.2971   50.7785 C.3     1  ZINC000572257265   -0.1500
      6 O6         -1.7418    2.8561   51.8430 O.3     1  ZINC000572257265   -0.5400
      7 C7         -1.7333    2.9496   49.4281 C.3     1  ZINC000572257265    0.0900
      8 N8         -1.2828    1.5682   49.6147 N.am    1  ZINC000572257265   -1.1100
      9 S9         -1.5128    0.4527   48.4125 S.o2    1  ZINC000572257265    2.6900
     10 O10        -0.8426   -0.7294   48.8284 O.2     1  ZINC000572257265   -0.9400
     11 O11        -2.8964    0.4893   48.0906 O.2     1  ZINC000572257265   -0.9500
     12 C12        -0.6550    1.0363   46.9885 C.ar    1  ZINC000572257265   -0.6300
     13 C13         0.6903    1.3435   47.0695 C.ar    1  ZINC000572257265   -0.0400
     14 C14         1.3634    1.8015   45.9523 C.ar    1  ZINC000572257265   -0.0400
     15 C15         0.6910    1.9520   44.7538 C.ar    1  ZINC000572257265   -0.6300
     16 S16         1.5487    2.5363   43.3299 S.o2    1  ZINC000572257265    2.7000
     17 O17         2.7679    1.8088   43.2693 O.2     1  ZINC000572257265   -0.9400
     18 O18         0.6016    2.5556   42.2708 O.2     1  ZINC000572257265   -0.9400
     19 N19         1.9597    4.1143   43.6186 N.am    1  ZINC000572257265   -1.1200
     20 C20         0.9148    5.1077   43.8783 C.3     1  ZINC000572257265    0.2200
     21 C21         0.5994    5.1236   45.3161 C.1     1  ZINC000572257265    0.1900
     22 N22         0.3559    5.1358   46.4256 N.1     1  ZINC000572257265   -0.3900
     23 C23        -0.6541    1.6436   44.6724 C.ar    1  ZINC000572257265   -0.0400
     24 C24        -1.3261    1.1820   45.7888 C.ar    1  ZINC000572257265   -0.0400
     25 H25        -5.2387    6.1549   50.3618 H       1  ZINC000572257265    0.0800
     26 H26        -6.2074    5.4538   51.6803 H       1  ZINC000572257265    0.1000
     27 H27        -4.7809    6.4498   52.0564 H       1  ZINC000572257265    0.0800
     28 H28        -2.6534    5.3240   49.8039 H       1  ZINC000572257265    0.0900
     29 H29        -2.2005    5.6307   51.4977 H       1  ZINC000572257265    0.0900
     30 H30         0.0180    4.8526   51.7061 H       1  ZINC000572257265    0.0800
     31 H31         0.6000    3.4797   50.7341 H       1  ZINC000572257265    0.0700
     32 H32         0.0343    4.9633   49.9296 H       1  ZINC000572257265    0.0800
     33 H33        -2.6390    2.5012   51.9067 H       1  ZINC000572257265    0.3800
     34 H34        -2.7885    2.9540   49.1553 H       1  ZINC000572257265    0.0900
     35 H35        -1.1509    3.4176   48.6344 H       1  ZINC000572257265    0.0800
     36 H36        -0.8498    1.3068   50.4425 H       1  ZINC000572257265    0.4300
     37 H37         1.2156    1.2259   48.0058 H       1  ZINC000572257265    0.1500
     38 H38         2.4142    2.0421   46.0159 H       1  ZINC000572257265    0.1500
     39 H39         2.8924    4.3809   43.6157 H       1  ZINC000572257265    0.4300
     40 H40         1.2662    6.0932   43.5726 H       1  ZINC000572257265    0.1100
     41 H41         0.0195    4.8497   43.3128 H       1  ZINC000572257265    0.1300
     42 H42        -1.1792    1.7608   43.7360 H       1  ZINC000572257265    0.1600
     43 H43        -2.3770    0.9410   45.7251 H       1  ZINC000572257265    0.1500
@<TRIPOS>BOND
     1     1     2    1
     2     1    25    1
     3     1    26    1
     4     1    27    1
     5     2     3    1
     6     3     4    1
     7     3    28    1
     8     3    29    1
     9     4     5    1
    10     4     6    1
    11     4     7    1
    12     5    30    1
    13     5    31    1
    14     5    32    1
    15     6    33    1
    16     7     8    1
    17     7    34    1
    18     7    35    1
    19     8     9   am
    20     8    36    1
    21     9    10    2
    22     9    11    2
    23     9    12    1
    24    12    24   ar
    25    12    13   ar
    26    13    14   ar
    27    13    37    1
    28    14    15   ar
    29    14    38    1
    30    15    16    1
    31    15    23   ar
    32    16    17    2
    33    16    18    2
    34    16    19   am
    35    19    20    1
    36    19    39    1
    37    20    21    1
    38    20    40    1
    39    20    41    1
    40    21    22    3
    41    23    24   ar
    42    23    42    1
    43    24    43    1
@<TRIPOS>SUBSTRUCTURE
     1 ZINC000572257265        1 TEMP              0 ****  ****    0 ROOT


##########                                Name:    ZINC001085817863
##########                DOCK_Rotatable_Bonds:                   7
##########                         Heavy_Atoms:                  24
##########                    Molecular_Weight:             326.442
##########                DOCK_Rotatable_Bonds:                   7
##########                       Formal_Charge:           0.0299998
##########                     HBond_Acceptors:                   5
##########                        HBond_Donors:                   0
##########                         Heavy_Atoms:                  24
##########                          Grid_Score:          -31.948767
##########                     Grid_vdw_energy:          -31.217665
##########                      Grid_es_energy:           -0.731102
##########           Internal_energy_repulsive:           14.589559

@<TRIPOS>MOLECULE
ZINC001085817863
 50 52 1 0 0
SMALL
USER_CHARGES


@<TRIPOS>ATOM
      1 C1         -2.2527    0.1265   45.1326 C.3     1  ZINC001085817863   -0.1400
      2 C2         -2.2959    0.4940   46.6172 C.3     1  ZINC001085817863   -0.0700
      3 C3         -0.9923    0.1091   47.2681 C.2     1  ZINC001085817863    0.1100
      4 C4          0.0804    0.9355   47.4607 C.2     1  ZINC001085817863   -0.2400
      5 C5          0.1848    2.3538   47.0787 C.2     1  ZINC001085817863    0.6000
      6 O6          0.2598    2.6636   45.9049 O.2     1  ZINC001085817863   -0.5300
      7 N7          0.1972    3.3088   48.0298 N.am    1  ZINC001085817863   -0.6100
      8 C8          0.3012    4.7197   47.6497 C.3     1  ZINC001085817863    0.0800
      9 C9          0.1068    2.9357   49.4435 C.3     1  ZINC001085817863    0.1300
     10 C10        -1.1501    3.5571   50.0557 C.3     1  ZINC001085817863    0.0100
     11 H11        -1.1778    4.6418   49.9511 H       1  ZINC001085817863    0.0800
     12 C12        -2.4494    2.8671   49.6169 C.3     1  ZINC001085817863   -0.1400
     13 C13        -2.8612    3.0956   51.0780 C.3     1  ZINC001085817863    0.0000
     14 N14        -1.4272    3.0919   51.4275 N.3     1  ZINC001085817863   -0.4400
     15 C15        -1.1225    4.1390   52.4117 C.3     1  ZINC001085817863    0.0700
     16 C16        -1.8226    3.8277   53.7094 C.ar    1  ZINC001085817863   -0.1300
     17 C17        -1.2233    3.0049   54.6506 C.ar    1  ZINC001085817863   -0.0700
     18 C18        -1.9044    2.7465   55.8304 C.ar    1  ZINC001085817863   -0.1700
     19 C19        -3.1489    3.3135   56.0277 C.ar    1  ZINC001085817863    0.1000
     20 N20        -3.6888    4.0918   55.1099 N.ar    1  ZINC001085817863   -0.4800
     21 C21        -3.0680    4.3636   53.9788 C.ar    1  ZINC001085817863    0.1200
     22 C22         1.1055    0.1237   48.1254 C.2     1  ZINC001085817863   -0.1900
     23 C23         0.5767   -1.1036   48.2767 C.2     1  ZINC001085817863   -0.0200
     24 N24        -0.6879   -1.1051   47.7642 N.pl3   1  ZINC001085817863   -0.4400
     25 C25        -1.5827   -2.2649   47.7468 C.3     1  ZINC001085817863    0.0600
     26 H26        -3.1955    0.4048   44.6617 H       1  ZINC001085817863    0.0600
     27 H27        -1.4340    0.6602   44.6499 H       1  ZINC001085817863    0.0500
     28 H28        -2.0976   -0.9474   45.0284 H       1  ZINC001085817863    0.0600
     29 H29        -2.4509    1.5678   46.7213 H       1  ZINC001085817863    0.0600
     30 H30        -3.1145   -0.0398   47.0998 H       1  ZINC001085817863    0.1100
     31 H31        -0.5309    4.9823   46.9964 H       1  ZINC001085817863    0.0700
     32 H32         0.2701    5.3405   48.5451 H       1  ZINC001085817863    0.0700
     33 H33         1.2418    4.8863   47.1246 H       1  ZINC001085817863    0.0600
     34 H34         0.0548    1.8504   49.5303 H       1  ZINC001085817863    0.0800
     35 H35         0.9871    3.3007   49.9727 H       1  ZINC001085817863    0.1000
     36 H36        -3.0346    3.4356   48.8941 H       1  ZINC001085817863    0.0800
     37 H37        -2.3282    1.8182   49.3462 H       1  ZINC001085817863    0.1000
     38 H38        -3.3458    4.0572   51.2472 H       1  ZINC001085817863    0.0700
     39 H39        -3.4158    2.2618   51.5084 H       1  ZINC001085817863    0.0800
     40 H40        -0.0462    4.1776   52.5797 H       1  ZINC001085817863    0.0900
     41 H41        -1.4663    5.1025   52.0355 H       1  ZINC001085817863    0.0500
     42 H42        -0.2493    2.5751   54.4689 H       1  ZINC001085817863    0.1300
     43 H43        -1.4677    2.1097   56.5857 H       1  ZINC001085817863    0.1300
     44 H44        -3.6860    3.1169   56.9438 H       1  ZINC001085817863    0.1600
     45 H45        -3.5417    5.0053   53.2508 H       1  ZINC001085817863    0.1500
     46 H46         2.0892    0.4471   48.4321 H       1  ZINC001085817863    0.1600
     47 H47         1.0707   -1.9487   48.7328 H       1  ZINC001085817863    0.1600
     48 H48        -2.1766   -2.2793   48.6607 H       1  ZINC001085817863    0.0800
     49 H49        -2.2454   -2.1996   46.8839 H       1  ZINC001085817863    0.0900
     50 H50        -0.9920   -3.1787   47.6831 H       1  ZINC001085817863    0.0900
@<TRIPOS>BOND
     1     1     2    1
     2     1    26    1
     3     1    27    1
     4     1    28    1
     5     2     3    1
     6     2    29    1
     7     2    30    1
     8     3    24    1
     9     3     4    2
    10     4     5    1
    11     4    22    1
    12     5     6    2
    13     5     7   am
    14     7     8    1
    15     7     9    1
    16     8    31    1
    17     8    32    1
    18     8    33    1
    19     9    10    1
    20     9    34    1
    21     9    35    1
    22    10    11    1
    23    10    14    1
    24    10    12    1
    25    12    13    1
    26    12    36    1
    27    12    37    1
    28    13    14    1
    29    13    38    1
    30    13    39    1
    31    14    15    1
    32    15    16    1
    33    15    40    1
    34    15    41    1
    35    16    21   ar
    36    16    17   ar
    37    17    18   ar
    38    17    42    1
    39    18    19   ar
    40    18    43    1
    41    19    20   ar
    42    19    44    1
    43    20    21   ar
    44    21    45    1
    45    22    23    2
    46    22    46    1
    47    23    24    1
    48    23    47    1
    49    24    25    1
    50    25    48    1
    51    25    49    1
    52    25    50    1
@<TRIPOS>SUBSTRUCTURE
     1 ZINC001085817863        1 TEMP              0 ****  ****    0 ROOT


##########                                Name:    ZINC001141221454
##########                DOCK_Rotatable_Bonds:                   7
##########                         Heavy_Atoms:                  27
##########                    Molecular_Weight:             369.439
##########                DOCK_Rotatable_Bonds:                   7
##########                       Formal_Charge:          0.00999935
##########                     HBond_Acceptors:                   6
##########                        HBond_Donors:                   1
##########                         Heavy_Atoms:                  27
##########                          Grid_Score:          -31.933369
##########                     Grid_vdw_energy:          -30.202705
##########                      Grid_es_energy:           -1.730663
##########           Internal_energy_repulsive:           13.002891

@<TRIPOS>MOLECULE
ZINC001141221454
 51 54 1 0 0
SMALL
USER_CHARGES


@<TRIPOS>ATOM
      1 C1         -1.0943   -2.8963   48.3211 C.3     1  ZINC001141221454    0.0300
      2 O2         -1.8348   -1.6975   48.5596 O.3     1  ZINC001141221454   -0.3100
      3 C3         -1.1295   -0.5363   48.6109 C.ar    1  ZINC001141221454    0.0900
      4 C4          0.2360   -0.5422   48.3727 C.ar    1  ZINC001141221454   -0.1800
      5 C5          0.9511    0.6396   48.4249 C.ar    1  ZINC001141221454   -0.0900
      6 C6          0.3064    1.8275   48.7145 C.ar    1  ZINC001141221454   -0.1200
      7 C7         -1.0557    1.8378   48.9534 C.ar    1  ZINC001141221454   -0.0800
      8 C8         -1.7552    3.1347   49.2693 C.3     1  ZINC001141221454    0.0900
      9 N9         -2.2150    3.1158   50.6643 N.3     1  ZINC001141221454   -0.5100
     10 C10        -1.2718    3.8513   51.5460 C.3     1  ZINC001141221454    0.0300
     11 C11        -2.1343    4.1894   52.7898 C.3     1  ZINC001141221454   -0.0700
     12 C12        -3.5132    4.4905   52.1742 C.3     1  ZINC001141221454   -0.1000
     13 C13        -4.2016    5.8305   52.3988 C.3     1  ZINC001141221454   -0.1400
     14 C14        -4.7654    4.5583   53.0385 C.3     1  ZINC001141221454   -0.1800
     15 H15        -5.6870    4.1513   52.6225 H       1  ZINC001141221454    0.1300
     16 C16        -4.5951    4.3929   54.5266 C.2     1  ZINC001141221454    0.5500
     17 O17        -4.7152    5.3507   55.2610 O.2     1  ZINC001141221454   -0.5300
     18 N18        -4.3093    3.1807   55.0416 N.am    1  ZINC001141221454   -0.7300
     19 C19        -4.1420    3.0202   56.4881 C.3     1  ZINC001141221454    0.1700
     20 C20        -5.4948    3.0100   57.1522 C.ar    1  ZINC001141221454   -0.1600
     21 C21        -6.2959    1.8801   57.0961 C.ar    1  ZINC001141221454   -0.0600
     22 C22        -7.5327    1.9161   57.7221 C.ar    1  ZINC001141221454   -0.1700
     23 C23        -7.9229    3.0689   58.3763 C.ar    1  ZINC001141221454    0.1100
     24 N24        -7.1344    4.1257   58.4093 N.ar    1  ZINC001141221454   -0.4800
     25 C25        -5.9501    4.1255   57.8299 C.ar    1  ZINC001141221454    0.1200
     26 C26        -3.5190    3.8041   50.8027 C.3     1  ZINC001141221454    0.0700
     27 C27        -1.7771    0.6593   48.8968 C.ar    1  ZINC001141221454    0.0900
     28 F28        -3.1078    0.6689   49.1301 F       1  ZINC001141221454   -0.1300
     29 H29        -1.7757   -3.7469   48.3042 H       1  ZINC001141221454    0.1000
     30 H30        -0.5819   -2.8221   47.3619 H       1  ZINC001141221454    0.0600
     31 H31        -0.3606   -3.0341   49.1153 H       1  ZINC001141221454    0.0600
     32 H32         0.7411   -1.4696   48.1466 H       1  ZINC001141221454    0.1400
     33 H33         2.0150    0.6347   48.2395 H       1  ZINC001141221454    0.1300
     34 H34         0.8677    2.7493   48.7546 H       1  ZINC001141221454    0.1300
     35 H35        -1.0635    3.9648   49.1259 H       1  ZINC001141221454    0.0600
     36 H36        -2.6115    3.2565   48.6061 H       1  ZINC001141221454    0.0900
     37 H37        -0.4303    3.2163   51.8230 H       1  ZINC001141221454    0.0800
     38 H38        -0.9234    4.7629   51.0605 H       1  ZINC001141221454    0.0500
     39 H39        -2.1907    3.3355   53.4648 H       1  ZINC001141221454    0.0900
     40 H40        -1.7417    5.0658   53.3056 H       1  ZINC001141221454    0.0700
     41 H41        -3.7070    6.5471   53.0544 H       1  ZINC001141221454    0.1000
     42 H42        -4.7525    6.2602   51.5621 H       1  ZINC001141221454    0.1100
     43 H43        -4.2145    2.4144   54.4544 H       1  ZINC001141221454    0.4000
     44 H44        -3.6298    2.0801   56.6926 H       1  ZINC001141221454    0.0800
     45 H45        -3.5514    3.8484   56.8796 H       1  ZINC001141221454    0.0800
     46 H46        -5.9646    0.9928   56.5770 H       1  ZINC001141221454    0.1400
     47 H47        -8.1829    1.0541   57.6983 H       1  ZINC001141221454    0.1400
     48 H48        -8.8848    3.1052   58.8660 H       1  ZINC001141221454    0.1600
     49 H49        -5.3322    5.0099   57.8780 H       1  ZINC001141221454    0.1600
     50 H50        -3.6336    4.5477   50.0140 H       1  ZINC001141221454    0.0500
     51 H51        -4.3308    3.0785   50.7524 H       1  ZINC001141221454    0.0900
@<TRIPOS>BOND
     1     1     2    1
     2     1    29    1
     3     1    30    1
     4     1    31    1
     5     2     3    1
     6     3    27   ar
     7     3     4   ar
     8     4     5   ar
     9     4    32    1
    10     5     6   ar
    11     5    33    1
    12     6     7   ar
    13     6    34    1
    14     7     8    1
    15     7    27   ar
    16     8     9    1
    17     8    35    1
    18     8    36    1
    19     9    26    1
    20     9    10    1
    21    10    11    1
    22    10    37    1
    23    10    38    1
    24    11    12    1
    25    11    39    1
    26    11    40    1
    27    12    14    1
    28    12    13    1
    29    12    26    1
    30    13    14    1
    31    13    41    1
    32    13    42    1
    33    14    15    1
    34    14    16    1
    35    16    17    2
    36    16    18   am
    37    18    19    1
    38    18    43    1
    39    19    20    1
    40    19    44    1
    41    19    45    1
    42    20    25   ar
    43    20    21   ar
    44    21    22   ar
    45    21    46    1
    46    22    23   ar
    47    22    47    1
    48    23    24   ar
    49    23    48    1
    50    24    25   ar
    51    25    49    1
    52    26    50    1
    53    26    51    1
    54    27    28    1
@<TRIPOS>SUBSTRUCTURE
     1 ZINC001141221454        1 TEMP              0 ****  ****    0 ROOT


##########                                Name:    ZINC000952280524
##########                DOCK_Rotatable_Bonds:                   9
##########                         Heavy_Atoms:                  25
##########                    Molecular_Weight:             348.486
##########                DOCK_Rotatable_Bonds:                   9
##########                       Formal_Charge:          -0.0100004
##########                     HBond_Acceptors:                   5
##########                        HBond_Donors:                   1
##########                         Heavy_Atoms:                  25
##########                          Grid_Score:          -31.927261
##########                     Grid_vdw_energy:          -31.046728
##########                      Grid_es_energy:           -0.880533
##########           Internal_energy_repulsive:           22.968098

@<TRIPOS>MOLECULE
ZINC000952280524
 57 59 1 0 0
SMALL
USER_CHARGES


@<TRIPOS>ATOM
      1 C1        -14.6103    0.3543   61.1706 C.3     1  ZINC000952280524   -0.1800
      2 C2        -14.3522   -1.1115   60.8160 C.3     1  ZINC000952280524    0.1400
      3 C3        -13.7805   -1.8381   62.0350 C.3     1  ZINC000952280524   -0.1900
      4 O4        -15.5795   -1.7303   60.4250 O.3     1  ZINC000952280524   -0.5500
      5 C5        -13.3517   -1.1882   59.6609 C.3     1  ZINC000952280524   -0.1200
      6 C6        -13.4752   -2.5256   58.9774 C.2     1  ZINC000952280524    0.5300
      7 O7        -13.9069   -3.4808   59.5874 O.2     1  ZINC000952280524   -0.5100
      8 N8        -13.1058   -2.6601   57.6883 N.am    1  ZINC000952280524   -0.6300
      9 C9        -13.1730   -3.9011   56.9026 C.3     1  ZINC000952280524    0.1000
     10 C10       -12.6243   -3.5830   55.4958 C.3     1  ZINC000952280524   -0.1300
     11 C11       -11.7529   -2.3226   55.7394 C.3     1  ZINC000952280524   -0.1000
     12 H12       -10.7642   -2.5965   56.1078 H       1  ZINC000952280524    0.0900
     13 C13       -11.6466   -1.4755   54.4698 C.3     1  ZINC000952280524   -0.0700
     14 C14       -11.0183   -0.1224   54.8107 C.3     1  ZINC000952280524   -0.1300
     15 C15       -10.9453    0.7360   53.5439 C.3     1  ZINC000952280524    0.1100
     16 N16       -10.2306   -0.0162   52.5035 N.am    1  ZINC000952280524   -0.6100
     17 C17        -9.1669    0.5223   51.8751 C.2     1  ZINC000952280524    0.5500
     18 O18        -8.5838   -0.1104   51.0157 O.2     1  ZINC000952280524   -0.5500
     19 C19        -8.7112    1.8755   52.2288 C.2     1  ZINC000952280524   -0.2200
     20 C20        -7.4504    2.0764   52.6014 C.2     1  ZINC000952280524   -0.0300
     21 C21        -6.9831    3.4630   52.9620 C.3     1  ZINC000952280524   -0.1500
     22 C22        -7.3767    4.0056   54.3373 C.3     1  ZINC000952280524   -0.1700
     23 C23        -5.9299    3.5890   54.0648 C.3     1  ZINC000952280524   -0.1600
     24 C24       -10.6974   -1.3668   52.1618 C.3     1  ZINC000952280524    0.1000
     25 C25       -10.7731   -2.2016   53.4441 C.3     1  ZINC000952280524   -0.1300
     26 C26       -12.5734   -1.5858   56.8304 C.3     1  ZINC000952280524    0.1100
     27 H27       -13.6930    0.8028   61.5519 H       1  ZINC000952280524    0.0700
     28 H28       -14.9345    0.8920   60.2796 H       1  ZINC000952280524    0.0600
     29 H29       -15.3872    0.4122   61.9329 H       1  ZINC000952280524    0.0600
     30 H30       -14.4932   -1.7835   62.8578 H       1  ZINC000952280524    0.0600
     31 H31       -13.5965   -2.8823   61.7823 H       1  ZINC000952280524    0.0800
     32 H32       -12.8443   -1.3661   62.3333 H       1  ZINC000952280524    0.0600
     33 H33       -16.0012   -1.3179   59.6587 H       1  ZINC000952280524    0.3700
     34 H34       -13.5617   -0.3936   58.9450 H       1  ZINC000952280524    0.1000
     35 H35       -12.3398   -1.0702   60.0483 H       1  ZINC000952280524    0.1000
     36 H36       -12.5621   -4.6713   57.3734 H       1  ZINC000952280524    0.0700
     37 H37       -14.2071   -4.2381   56.8298 H       1  ZINC000952280524    0.0700
     38 H38       -12.0153   -4.4070   55.1240 H       1  ZINC000952280524    0.0800
     39 H39       -13.4383   -3.3615   54.8054 H       1  ZINC000952280524    0.0800
     40 H40       -12.6417   -1.3190   54.0533 H       1  ZINC000952280524    0.0800
     41 H41       -11.6285    0.3840   55.5586 H       1  ZINC000952280524    0.0800
     42 H42       -10.0135   -0.2766   55.2041 H       1  ZINC000952280524    0.0700
     43 H43       -11.9536    0.9668   53.2004 H       1  ZINC000952280524    0.0700
     44 H44       -10.4097    1.6606   53.7593 H       1  ZINC000952280524    0.0900
     45 H45        -9.4005    2.7058   52.1861 H       1  ZINC000952280524    0.1300
     46 H46        -6.7615    1.2459   52.6454 H       1  ZINC000952280524    0.1300
     47 H47        -6.9341    4.1723   52.1359 H       1  ZINC000952280524    0.1200
     48 H48        -7.5868    5.0722   54.4162 H       1  ZINC000952280524    0.1000
     49 H49        -7.9736    3.3598   54.9813 H       1  ZINC000952280524    0.1000
     50 H50        -5.5751    2.6690   54.5293 H       1  ZINC000952280524    0.1000
     51 H51        -5.1883    4.3815   53.9642 H       1  ZINC000952280524    0.1000
     52 H52       -11.6855   -1.3074   51.7055 H       1  ZINC000952280524    0.0700
     53 H53        -9.9982   -1.8297   51.4653 H       1  ZINC000952280524    0.0900
     54 H54        -9.7707   -2.3362   53.8503 H       1  ZINC000952280524    0.0700
     55 H55       -11.2088   -3.1751   53.2192 H       1  ZINC000952280524    0.0800
     56 H56       -13.3856   -1.0186   56.3758 H       1  ZINC000952280524    0.0700
     57 H57       -11.9276   -0.9267   57.4104 H       1  ZINC000952280524    0.0800
@<TRIPOS>BOND
     1     1     2    1
     2     1    27    1
     3     1    28    1
     4     1    29    1
     5     2     3    1
     6     2     4    1
     7     2     5    1
     8     3    30    1
     9     3    31    1
    10     3    32    1
    11     4    33    1
    12     5     6    1
    13     5    34    1
    14     5    35    1
    15     6     7    2
    16     6     8   am
    17     8    26    1
    18     8     9    1
    19     9    10    1
    20     9    36    1
    21     9    37    1
    22    10    11    1
    23    10    38    1
    24    10    39    1
    25    11    12    1
    26    11    13    1
    27    11    26    1
    28    13    25    1
    29    13    14    1
    30    13    40    1
    31    14    15    1
    32    14    41    1
    33    14    42    1
    34    15    16    1
    35    15    43    1
    36    15    44    1
    37    16    17   am
    38    16    24    1
    39    17    18    2
    40    17    19    1
    41    19    20    2
    42    19    45    1
    43    20    21    1
    44    20    46    1
    45    21    23    1
    46    21    22    1
    47    21    47    1
    48    22    23    1
    49    22    48    1
    50    22    49    1
    51    23    50    1
    52    23    51    1
    53    24    25    1
    54    24    52    1
    55    24    53    1
    56    25    54    1
    57    25    55    1
    58    26    56    1
    59    26    57    1
@<TRIPOS>SUBSTRUCTURE
     1 ZINC000952280524        1 TEMP              0 ****  ****    0 ROOT


##########                                Name:    ZINC000762020937
##########                DOCK_Rotatable_Bonds:                  10
##########                         Heavy_Atoms:                  28
##########                    Molecular_Weight:             391.467
##########                DOCK_Rotatable_Bonds:                  10
##########                       Formal_Charge:         -1.8999e-07
##########                     HBond_Acceptors:                   8
##########                        HBond_Donors:                   1
##########                         Heavy_Atoms:                  28
##########                          Grid_Score:          -31.908201
##########                     Grid_vdw_energy:          -30.934921
##########                      Grid_es_energy:           -0.973279
##########           Internal_energy_repulsive:           42.418648

@<TRIPOS>MOLECULE
ZINC000762020937
 57 58 1 0 0
SMALL
USER_CHARGES


@<TRIPOS>ATOM
      1 C1          1.3857    2.7422   42.1936 C.3     1  ZINC000762020937    0.0200
      2 O2          0.2783    3.1488   43.0000 O.3     1  ZINC000762020937   -0.3000
      3 C3          0.4146    3.0188   44.3468 C.ar    1  ZINC000762020937    0.1100
      4 C4          0.9501    4.0553   45.0936 C.ar    1  ZINC000762020937   -0.1700
      5 C5          1.0876    3.9216   46.4631 C.ar    1  ZINC000762020937   -0.1000
      6 C6          0.6921    2.7551   47.0898 C.ar    1  ZINC000762020937   -0.1000
      7 C7          0.8446    2.6145   48.5825 C.3     1  ZINC000762020937    0.0200
      8 C8         -0.5135    2.6676   49.2334 C.2     1  ZINC000762020937    0.1900
      9 N9         -0.8518    3.3859   50.2771 N.2     1  ZINC000762020937   -0.4700
     10 C10        -2.1505    3.1150   50.4974 C.2     1  ZINC000762020937    0.1600
     11 C11        -3.0094    3.6948   51.5915 C.3     1  ZINC000762020937    0.2600
     12 H12        -3.6877    2.9281   51.9660 H       1  ZINC000762020937    0.1200
     13 N13        -2.1555    4.1671   52.6842 N.am    1  ZINC000762020937   -0.7100
     14 C14        -2.5374    3.9868   53.9642 C.2     1  ZINC000762020937    0.6600
     15 O15        -3.5893    3.4313   54.2118 O.2     1  ZINC000762020937   -0.5600
     16 O16        -1.7533    4.4222   54.9683 O.3     1  ZINC000762020937   -0.3600
     17 C17        -2.2372    4.2121   56.3211 C.3     1  ZINC000762020937    0.1400
     18 C18        -3.5802    4.9232   56.4986 C.3     1  ZINC000762020937   -0.1800
     19 C19        -2.4166    2.7135   56.5716 C.3     1  ZINC000762020937   -0.1400
     20 C20        -1.2246    4.7783   57.3187 C.3     1  ZINC000762020937   -0.1800
     21 C21        -3.8212    4.8666   51.0359 C.3     1  ZINC000762020937   -0.1000
     22 C22        -5.1468    4.9728   51.7923 C.3     1  ZINC000762020937   -0.1400
     23 C23        -3.0291    6.1640   51.2100 C.3     1  ZINC000762020937   -0.1400
     24 N24        -2.5290    2.2617   49.5934 N.2     1  ZINC000762020937   -0.3700
     25 O25        -1.6049    1.9961   48.8539 O.3     1  ZINC000762020937    0.0900
     26 C26         0.1563    1.7167   46.3502 C.ar    1  ZINC000762020937   -0.1500
     27 C27         0.0109    1.8460   44.9787 C.ar    1  ZINC000762020937    0.1000
     28 O28        -0.5158    0.8259   44.2500 O.3     1  ZINC000762020937   -0.3100
     29 C29        -1.8783    0.4804   44.5076 C.3     1  ZINC000762020937    0.0200
     30 H30         2.2634    3.3322   42.4575 H       1  ZINC000762020937    0.0600
     31 H31         1.5927    1.6860   42.3664 H       1  ZINC000762020937    0.0600
     32 H32         1.1459    2.8980   41.1418 H       1  ZINC000762020937    0.1000
     33 H33         1.2606    4.9677   44.6062 H       1  ZINC000762020937    0.1400
     34 H34         1.5053    4.7306   47.0442 H       1  ZINC000762020937    0.1300
     35 H35         1.3200    1.6606   48.8109 H       1  ZINC000762020937    0.1200
     36 H36         1.4618    3.4285   48.9629 H       1  ZINC000762020937    0.1200
     37 H37        -1.3151    4.6094   52.4866 H       1  ZINC000762020937    0.4100
     38 H38        -4.3016    4.5200   55.7879 H       1  ZINC000762020937    0.0600
     39 H39        -3.9435    4.7656   57.5141 H       1  ZINC000762020937    0.0700
     40 H40        -3.4523    5.9909   56.3201 H       1  ZINC000762020937    0.0900
     41 H41        -1.4598    2.2068   56.4452 H       1  ZINC000762020937    0.0700
     42 H42        -2.7800    2.5557   57.5871 H       1  ZINC000762020937    0.0800
     43 H43        -3.1380    2.3102   55.8610 H       1  ZINC000762020937    0.0700
     44 H44        -1.0968    5.8459   57.1402 H       1  ZINC000762020937    0.0900
     45 H45        -1.5879    4.6206   58.3342 H       1  ZINC000762020937    0.0700
     46 H46        -0.2679    4.2716   57.1923 H       1  ZINC000762020937    0.0600
     47 H47        -4.0195    4.7014   49.9768 H       1  ZINC000762020937    0.0800
     48 H48        -4.9486    5.1381   52.8513 H       1  ZINC000762020937    0.0600
     49 H49        -5.7252    5.8077   51.3964 H       1  ZINC000762020937    0.0600
     50 H50        -5.7111    4.0486   51.6682 H       1  ZINC000762020937    0.0500
     51 H51        -2.0847    6.0882   50.6711 H       1  ZINC000762020937    0.0500
     52 H52        -3.6075    6.9987   50.8142 H       1  ZINC000762020937    0.0600
     53 H53        -2.8309    6.3291   52.2691 H       1  ZINC000762020937    0.0700
     54 H54        -0.1520    0.8062   46.8425 H       1  ZINC000762020937    0.1400
     55 H55        -2.5155    1.3422   44.3085 H       1  ZINC000762020937    0.0600
     56 H56        -2.1722   -0.3461   43.8607 H       1  ZINC000762020937    0.1000
     57 H57        -1.9865    0.1819   45.5503 H       1  ZINC000762020937    0.0600
@<TRIPOS>BOND
     1     1     2    1
     2     1    30    1
     3     1    31    1
     4     1    32    1
     5     2     3    1
     6     3    27   ar
     7     3     4   ar
     8     4     5   ar
     9     4    33    1
    10     5     6   ar
    11     5    34    1
    12     6     7    1
    13     6    26   ar
    14     7     8    1
    15     7    35    1
    16     7    36    1
    17     8    25    1
    18     8     9    2
    19     9    10    1
    20    10    11    1
    21    10    24    2
    22    11    12    1
    23    11    13    1
    24    11    21    1
    25    13    14   am
    26    13    37    1
    27    14    15    2
    28    14    16    1
    29    16    17    1
    30    17    18    1
    31    17    19    1
    32    17    20    1
    33    18    38    1
    34    18    39    1
    35    18    40    1
    36    19    41    1
    37    19    42    1
    38    19    43    1
    39    20    44    1
    40    20    45    1
    41    20    46    1
    42    21    22    1
    43    21    23    1
    44    21    47    1
    45    22    48    1
    46    22    49    1
    47    22    50    1
    48    23    51    1
    49    23    52    1
    50    23    53    1
    51    24    25    1
    52    26    27   ar
    53    26    54    1
    54    27    28    1
    55    28    29    1
    56    29    55    1
    57    29    56    1
    58    29    57    1
@<TRIPOS>SUBSTRUCTURE
     1 ZINC000762020937        1 TEMP              0 ****  ****    0 ROOT


##########                                Name:    ZINC000298969660
##########                DOCK_Rotatable_Bonds:                  10
##########                         Heavy_Atoms:                  29
##########                    Molecular_Weight:             397.474
##########                DOCK_Rotatable_Bonds:                  10
##########                       Formal_Charge:          -0.0100008
##########                     HBond_Acceptors:                   7
##########                        HBond_Donors:                   2
##########                         Heavy_Atoms:                  29
##########                          Grid_Score:          -31.897194
##########                     Grid_vdw_energy:          -30.221643
##########                      Grid_es_energy:           -1.675550
##########           Internal_energy_repulsive:           13.789042

@<TRIPOS>MOLECULE
ZINC000298969660
 56 58 1 0 0
SMALL
USER_CHARGES


@<TRIPOS>ATOM
      1 C1         -2.9370    2.4268   56.9342 C.3     1  ZINC000298969660    0.0800
      2 N2         -1.8113    3.3238   56.6616 N.am    1  ZINC000298969660   -0.6300
      3 C3         -0.6998    3.4137   57.6116 C.3     1  ZINC000298969660    0.1400
      4 C4          0.3933    2.4201   57.2132 C.3     1  ZINC000298969660    0.0700
      5 H5          0.5307    1.6913   58.0120 H       1  ZINC000298969660    0.0500
      6 C6          1.7057    3.1723   56.9770 C.3     1  ZINC000298969660   -0.1500
      7 C7          2.7792    2.1796   56.5206 C.3     1  ZINC000298969660   -0.1200
      8 C8          2.2887    1.4570   55.2621 C.3     1  ZINC000298969660   -0.1600
      9 C9          0.9538    0.7710   55.5645 C.3     1  ZINC000298969660    0.0600
     10 O10         0.0098    1.7453   56.0133 O.3     1  ZINC000298969660   -0.3600
     11 C11        -1.7982    4.0661   55.5368 C.2     1  ZINC000298969660    0.7100
     12 O12        -0.8632    4.8094   55.3098 O.2     1  ZINC000298969660   -0.5400
     13 N13        -2.8217    3.9845   54.6636 N.am    1  ZINC000298969660   -0.6900
     14 C14        -2.8081    4.7553   53.4957 C.ar    1  ZINC000298969660    0.2000
     15 C15        -2.7042    6.1379   53.5763 C.ar    1  ZINC000298969660   -0.1800
     16 C16        -2.6913    6.8990   52.4232 C.ar    1  ZINC000298969660   -0.0600
     17 C17        -2.7812    6.2872   51.1876 C.ar    1  ZINC000298969660   -0.2300
     18 C18        -2.8852    4.9057   51.1010 C.ar    1  ZINC000298969660    0.1500
     19 O19        -2.9739    4.3055   49.8850 O.3     1  ZINC000298969660   -0.2900
     20 C20        -1.7570    3.8315   49.3050 C.3     1  ZINC000298969660    0.0400
     21 C21        -1.9023    2.3731   48.9541 C.2     1  ZINC000298969660    0.5100
     22 O22        -2.9566    1.8052   49.1467 O.2     1  ZINC000298969660   -0.4900
     23 N23        -0.8608    1.7000   48.4264 N.am    1  ZINC000298969660   -0.6700
     24 C24        -0.9957    0.3459   48.1006 C.ar    1  ZINC000298969660    0.1400
     25 C25        -2.0454   -0.0746   47.2945 C.ar    1  ZINC000298969660   -0.1400
     26 C26        -2.1758   -1.4118   46.9748 C.ar    1  ZINC000298969660   -0.1000
     27 C27        -1.2629   -2.3318   47.4568 C.ar    1  ZINC000298969660   -0.1300
     28 C28        -0.2168   -1.9163   48.2601 C.ar    1  ZINC000298969660   -0.1000
     29 C29        -0.0770   -0.5795   48.5780 C.ar    1  ZINC000298969660   -0.1200
     30 C30        -2.8927    4.1386   52.2552 C.ar    1  ZINC000298969660   -0.1500
     31 H31        -3.7010    2.9632   57.4971 H       1  ZINC000298969660    0.0600
     32 H32        -3.3588    2.0764   55.9921 H       1  ZINC000298969660    0.0700
     33 H33        -2.5890    1.5734   57.5162 H       1  ZINC000298969660    0.0800
     34 H34        -0.2932    4.4250   57.6004 H       1  ZINC000298969660    0.1000
     35 H35        -1.0580    3.1773   58.6135 H       1  ZINC000298969660    0.0900
     36 H36         1.5582    3.9291   56.2066 H       1  ZINC000298969660    0.0800
     37 H37         2.0228    3.6512   57.9034 H       1  ZINC000298969660    0.0700
     38 H38         3.7010    2.7166   56.2968 H       1  ZINC000298969660    0.0700
     39 H39         2.9624    1.4516   57.3109 H       1  ZINC000298969660    0.0600
     40 H40         2.1530    2.1791   54.4570 H       1  ZINC000298969660    0.0700
     41 H41         3.0228    0.7092   54.9621 H       1  ZINC000298969660    0.0700
     42 H42         0.5789    0.2909   54.6607 H       1  ZINC000298969660    0.0900
     43 H43         1.0987    0.0205   56.3416 H       1  ZINC000298969660    0.0400
     44 H44        -3.5676    3.3915   54.8447 H       1  ZINC000298969660    0.4100
     45 H45        -2.6338    6.6184   54.5409 H       1  ZINC000298969660    0.1300
     46 H46        -2.6112    7.9740   52.4878 H       1  ZINC000298969660    0.1300
     47 H47        -2.7709    6.8847   50.2879 H       1  ZINC000298969660    0.1300
     48 H48        -1.5381    4.4023   48.4026 H       1  ZINC000298969660    0.1000
     49 H49        -0.9424    3.9540   50.0189 H       1  ZINC000298969660    0.1000
     50 H50        -0.0177    2.1542   48.2724 H       1  ZINC000298969660    0.4100
     51 H51        -2.7592    0.6433   46.9183 H       1  ZINC000298969660    0.1300
     52 H52        -2.9919   -1.7395   46.3478 H       1  ZINC000298969660    0.1300
     53 H53        -1.3673   -3.3769   47.2057 H       1  ZINC000298969660    0.1200
     54 H54         0.4943   -2.6373   48.6356 H       1  ZINC000298969660    0.1300
     55 H55         0.7402   -0.2557   49.2055 H       1  ZINC000298969660    0.1300
     56 H56        -2.9735    3.0637   52.1898 H       1  ZINC000298969660    0.1500
@<TRIPOS>BOND
     1     1     2    1
     2     1    31    1
     3     1    32    1
     4     1    33    1
     5     2     3    1
     6     2    11   am
     7     3     4    1
     8     3    34    1
     9     3    35    1
    10     4     5    1
    11     4    10    1
    12     4     6    1
    13     6     7    1
    14     6    36    1
    15     6    37    1
    16     7     8    1
    17     7    38    1
    18     7    39    1
    19     8     9    1
    20     8    40    1
    21     8    41    1
    22     9    10    1
    23     9    42    1
    24     9    43    1
    25    11    12    2
    26    11    13   am
    27    13    14    1
    28    13    44    1
    29    14    30   ar
    30    14    15   ar
    31    15    16   ar
    32    15    45    1
    33    16    17   ar
    34    16    46    1
    35    17    18   ar
    36    17    47    1
    37    18    19    1
    38    18    30   ar
    39    19    20    1
    40    20    21    1
    41    20    48    1
    42    20    49    1
    43    21    22    2
    44    21    23   am
    45    23    24    1
    46    23    50    1
    47    24    29   ar
    48    24    25   ar
    49    25    26   ar
    50    25    51    1
    51    26    27   ar
    52    26    52    1
    53    27    28   ar
    54    27    53    1
    55    28    29   ar
    56    28    54    1
    57    29    55    1
    58    30    56    1
@<TRIPOS>SUBSTRUCTURE
     1 ZINC000298969660        1 TEMP              0 ****  ****    0 ROOT


##########                                Name:    ZINC001328997126
##########                DOCK_Rotatable_Bonds:                   7
##########                         Heavy_Atoms:                  26
##########                    Molecular_Weight:             388.488
##########                DOCK_Rotatable_Bonds:                   7
##########                       Formal_Charge:           0.0299993
##########                     HBond_Acceptors:                  10
##########                        HBond_Donors:                   1
##########                         Heavy_Atoms:                  26
##########                          Grid_Score:          -31.795753
##########                     Grid_vdw_energy:          -31.265368
##########                      Grid_es_energy:           -0.530387
##########           Internal_energy_repulsive:           14.864543

@<TRIPOS>MOLECULE
ZINC001328997126
 54 56 1 0 0
SMALL
USER_CHARGES


@<TRIPOS>ATOM
      1 C1         -7.3594    2.4851   58.1687 C.3     1  ZINC001328997126   -0.1700
      2 C2         -8.1537    1.7088   57.1163 C.3     1  ZINC001328997126    0.1400
      3 N3         -7.8407    2.2321   55.7843 N.am    1  ZINC001328997126   -0.6300
      4 C4         -6.5394    2.7719   55.3613 C.3     1  ZINC001328997126    0.0700
      5 C5         -6.7681    3.1706   53.8905 C.3     1  ZINC001328997126    0.0700
      6 H6         -6.1069    2.6048   53.2341 H       1  ZINC001328997126    0.1200
      7 C7         -6.5512    4.6734   53.7022 C.3     1  ZINC001328997126    0.0500
      8 N8         -5.2335    4.9057   53.0960 N.3     1  ZINC001328997126   -0.5300
      9 C9         -5.2200    4.4852   51.6879 C.3     1  ZINC001328997126    0.0500
     10 C10        -3.8583    4.8162   51.0724 C.3     1  ZINC001328997126    0.0600
     11 N11        -2.8013    4.1349   51.8328 N.3     1  ZINC001328997126   -0.5200
     12 C12        -1.4835    4.3672   51.2266 C.3     1  ZINC001328997126    0.0400
     13 C13        -1.4544    3.7699   49.8434 C.2     1  ZINC001328997126    0.5200
     14 O14        -1.3281    4.4890   48.8749 O.2     1  ZINC001328997126   -0.5100
     15 N15        -1.5688    2.4367   49.6826 N.am    1  ZINC001328997126   -0.7300
     16 C16        -1.5422    1.8562   48.3378 C.3     1  ZINC001328997126    0.1600
     17 H17        -1.8294    2.6120   47.6067 H       1  ZINC001328997126    0.1100
     18 C18        -0.1258    1.3440   48.0231 C.3     1  ZINC001328997126   -0.1400
     19 C19        -0.2449    0.4614   46.7539 C.3     1  ZINC001328997126   -0.5800
     20 S20        -1.7710   -0.5003   47.0788 S.o2    1  ZINC001328997126    2.4000
     21 O21        -2.5595   -0.5457   45.8975 O.2     1  ZINC001328997126   -0.9300
     22 O22        -1.4338   -1.7058   47.7514 O.2     1  ZINC001328997126   -0.9300
     23 C23        -2.5219    0.6678   48.2668 C.3     1  ZINC001328997126   -0.6100
     24 C24        -2.8148    4.5554   53.2408 C.3     1  ZINC001328997126    0.0500
     25 C25        -4.1764    4.2244   53.8563 C.3     1  ZINC001328997126    0.0600
     26 O26        -8.1595    2.8173   53.6416 O.3     1  ZINC001328997126   -0.3100
     27 C27        -8.6916    2.2917   54.7507 C.2     1  ZINC001328997126    0.6400
     28 O28        -9.8434    1.9108   54.8174 O.2     1  ZINC001328997126   -0.5200
     29 H29        -6.2927    2.3719   57.9754 H       1  ZINC001328997126    0.0600
     30 H30        -7.6275    3.5405   58.1208 H       1  ZINC001328997126    0.0600
     31 H31        -7.5923    2.0958   59.1599 H       1  ZINC001328997126    0.0700
     32 H32        -7.8857    0.6534   57.1643 H       1  ZINC001328997126    0.0900
     33 H33        -9.2204    1.8219   57.3098 H       1  ZINC001328997126    0.0900
     34 H34        -6.2749    3.6449   55.9579 H       1  ZINC001328997126    0.0900
     35 H35        -5.7657    2.0077   55.4351 H       1  ZINC001328997126    0.0900
     36 H36        -7.3271    5.0734   53.0496 H       1  ZINC001328997126    0.0900
     37 H37        -6.5985    5.1715   54.6706 H       1  ZINC001328997126    0.0600
     38 H38        -5.3949    3.4110   51.6275 H       1  ZINC001328997126    0.0500
     39 H39        -6.0031    5.0126   51.1433 H       1  ZINC001328997126    0.0900
     40 H40        -3.8360    4.4789   50.0362 H       1  ZINC001328997126    0.0800
     41 H41        -3.6953    5.8934   51.1083 H       1  ZINC001328997126    0.0500
     42 H42        -1.2966    5.4392   51.1634 H       1  ZINC001328997126    0.1100
     43 H43        -0.7136    3.8997   51.8406 H       1  ZINC001328997126    0.0700
     44 H44        -1.6687    1.8615   50.4572 H       1  ZINC001328997126    0.4100
     45 H45         0.5413    2.1846   47.8320 H       1  ZINC001328997126    0.1100
     46 H46         0.2502    0.7505   48.8566 H       1  ZINC001328997126    0.0900
     47 H47        -0.3590    1.0787   45.8628 H       1  ZINC001328997126    0.1400
     48 H48         0.6165   -0.1998   46.6602 H       1  ZINC001328997126    0.1400
     49 H49        -2.6226    0.1995   49.2459 H       1  ZINC001328997126    0.1400
     50 H50        -3.4937    1.0033   47.9049 H       1  ZINC001328997126    0.1500
     51 H51        -2.0317    4.0279   53.7854 H       1  ZINC001328997126    0.1000
     52 H52        -2.6399    5.6296   53.3012 H       1  ZINC001328997126    0.0400
     53 H53        -4.1988    4.5617   54.8926 H       1  ZINC001328997126    0.0800
     54 H54        -4.3395    3.1472   53.8205 H       1  ZINC001328997126    0.0500
@<TRIPOS>BOND
     1     1     2    1
     2     1    29    1
     3     1    30    1
     4     1    31    1
     5     2     3    1
     6     2    32    1
     7     2    33    1
     8     3    27   am
     9     3     4    1
    10     4     5    1
    11     4    34    1
    12     4    35    1
    13     5     6    1
    14     5     7    1
    15     5    26    1
    16     7     8    1
    17     7    36    1
    18     7    37    1
    19     8    25    1
    20     8     9    1
    21     9    10    1
    22     9    38    1
    23     9    39    1
    24    10    11    1
    25    10    40    1
    26    10    41    1
    27    11    12    1
    28    11    24    1
    29    12    13    1
    30    12    42    1
    31    12    43    1
    32    13    14    2
    33    13    15   am
    34    15    16    1
    35    15    44    1
    36    16    17    1
    37    16    23    1
    38    16    18    1
    39    18    19    1
    40    18    45    1
    41    18    46    1
    42    19    20    1
    43    19    47    1
    44    19    48    1
    45    20    21    2
    46    20    22    2
    47    20    23    1
    48    23    49    1
    49    23    50    1
    50    24    25    1
    51    24    51    1
    52    24    52    1
    53    25    53    1
    54    25    54    1
    55    26    27    1
    56    27    28    2
@<TRIPOS>SUBSTRUCTURE
     1 ZINC001328997126        1 TEMP              0 ****  ****    0 ROOT


##########                                Name:    ZINC000188380122
##########                DOCK_Rotatable_Bonds:                   6
##########                         Heavy_Atoms:                  27
##########                    Molecular_Weight:             396.433
##########                DOCK_Rotatable_Bonds:                   6
##########                       Formal_Charge:           0.0299998
##########                     HBond_Acceptors:                   8
##########                        HBond_Donors:                   1
##########                         Heavy_Atoms:                  27
##########                          Grid_Score:          -31.756557
##########                     Grid_vdw_energy:          -31.173027
##########                      Grid_es_energy:           -0.583531
##########           Internal_energy_repulsive:           11.161318

@<TRIPOS>MOLECULE
ZINC000188380122
 46 49 1 0 0
SMALL
USER_CHARGES


@<TRIPOS>ATOM
      1 O1         -0.3604    3.7652   47.5973 O.2     1  ZINC000188380122   -0.5200
      2 C2         -0.7391    3.2889   48.6465 C.2     1  ZINC000188380122    0.5200
      3 C3         -0.4734    4.0120   49.9417 C.3     1  ZINC000188380122   -0.0700
      4 C4         -1.7041    3.9563   50.8097 C.2     1  ZINC000188380122    0.0900
      5 C5         -2.9368    4.0584   50.3015 C.2     1  ZINC000188380122   -0.2400
      6 S6         -4.0910    3.9473   51.6289 S.3     1  ZINC000188380122    0.1000
      7 C7         -2.7577    3.7695   52.7668 C.2     1  ZINC000188380122    0.1100
      8 C8         -2.8943    3.6067   54.2300 C.ar    1  ZINC000188380122   -0.0200
      9 C9         -1.7575    3.5224   55.0347 C.ar    1  ZINC000188380122   -0.0400
     10 C10        -1.8918    3.3709   56.3997 C.ar    1  ZINC000188380122   -0.1200
     11 C11        -3.1500    3.3023   56.9705 C.ar    1  ZINC000188380122   -0.0600
     12 C12        -4.2814    3.3853   56.1779 C.ar    1  ZINC000188380122   -0.1800
     13 C13        -5.6481    3.3101   56.8084 C.3     1  ZINC000188380122    0.5100
     14 F14        -5.5911    3.8245   58.1082 F       1  ZINC000188380122   -0.1700
     15 F15        -6.5536    4.0594   56.0496 F       1  ZINC000188380122   -0.1700
     16 F16        -6.0683    1.9764   56.8527 F       1  ZINC000188380122   -0.1700
     17 C17        -4.1608    3.5425   54.8128 C.ar    1  ZINC000188380122   -0.0500
     18 N18        -1.6327    3.7989   52.1114 N.2     1  ZINC000188380122   -0.4300
     19 N19        -1.4023    2.1156   48.6535 N.am    1  ZINC000188380122   -0.7200
     20 C20        -1.6605    1.4127   47.3945 C.3     1  ZINC000188380122    0.1300
     21 H21        -1.7851    2.0894   46.5491 H       1  ZINC000188380122    0.1200
     22 C22        -2.7643    0.3452   47.4985 C.3     1  ZINC000188380122   -0.1800
     23 C23        -1.8882   -0.5155   46.5807 C.3     1  ZINC000188380122    0.0900
     24 H24        -2.0689   -0.2959   45.5284 H       1  ZINC000188380122    0.1200
     25 O25        -1.9261   -1.8978   46.8316 O.3     1  ZINC000188380122   -0.3700
     26 C26        -1.3730   -2.4039   48.0323 C.3     1  ZINC000188380122    0.0700
     27 C27         0.0175   -1.8208   48.2801 C.3     1  ZINC000188380122   -0.1600
     28 C28        -0.1066   -0.2997   48.4127 C.3     1  ZINC000188380122   -0.1100
     29 C29        -0.6797    0.2545   47.1203 C.3     1  ZINC000188380122   -0.1500
     30 H30         0.0803    0.4788   46.3718 H       1  ZINC000188380122    0.0900
     31 H31         0.3586    3.5352   50.4600 H       1  ZINC000188380122    0.1100
     32 H32        -0.2231    5.0520   49.7325 H       1  ZINC000188380122    0.1100
     33 H33        -3.1827    4.1871   49.2578 H       1  ZINC000188380122    0.1800
     34 H34        -0.7747    3.5751   54.5902 H       1  ZINC000188380122    0.1500
     35 H35        -1.0129    3.3056   57.0237 H       1  ZINC000188380122    0.1400
     36 H36        -3.2498    3.1831   58.0392 H       1  ZINC000188380122    0.1500
     37 H37        -5.0445    3.6072   54.1954 H       1  ZINC000188380122    0.1400
     38 H38        -1.7086    1.7367   49.4923 H       1  ZINC000188380122    0.4000
     39 H39        -2.8840   -0.0652   48.5012 H       1  ZINC000188380122    0.0900
     40 H40        -3.7092    0.6463   47.0462 H       1  ZINC000188380122    0.0800
     41 H41        -2.0250   -2.1419   48.8655 H       1  ZINC000188380122    0.0500
     42 H42        -1.2993   -3.4891   47.9635 H       1  ZINC000188380122    0.1000
     43 H43         0.4296   -2.2358   49.1999 H       1  ZINC000188380122    0.0800
     44 H44         0.6706   -2.0630   47.4417 H       1  ZINC000188380122    0.0800
     45 H45        -0.7723   -0.0583   49.2413 H       1  ZINC000188380122    0.0700
     46 H46         0.8773    0.1327   48.5937 H       1  ZINC000188380122    0.0800
@<TRIPOS>BOND
     1     1     2    2
     2     2     3    1
     3     2    19   am
     4     3     4    1
     5     3    31    1
     6     3    32    1
     7     4    18    1
     8     4     5    2
     9     5     6    1
    10     5    33    1
    11     6     7    1
    12     7     8    1
    13     7    18    2
    14     8    17   ar
    15     8     9   ar
    16     9    10   ar
    17     9    34    1
    18    10    11   ar
    19    10    35    1
    20    11    12   ar
    21    11    36    1
    22    12    13    1
    23    12    17   ar
    24    13    14    1
    25    13    15    1
    26    13    16    1
    27    17    37    1
    28    19    20    1
    29    19    38    1
    30    20    21    1
    31    20    29    1
    32    20    22    1
    33    22    23    1
    34    22    39    1
    35    22    40    1
    36    23    24    1
    37    23    29    1
    38    23    25    1
    39    25    26    1
    40    26    27    1
    41    26    41    1
    42    26    42    1
    43    27    28    1
    44    27    43    1
    45    27    44    1
    46    28    29    1
    47    28    45    1
    48    28    46    1
    49    29    30    1
@<TRIPOS>SUBSTRUCTURE
     1 ZINC000188380122        1 TEMP              0 ****  ****    0 ROOT


##########                                Name:    ZINC000337709254
##########                DOCK_Rotatable_Bonds:                   7
##########                         Heavy_Atoms:                  22
##########                    Molecular_Weight:              329.42
##########                DOCK_Rotatable_Bonds:                   7
##########                       Formal_Charge:           0.0300004
##########                     HBond_Acceptors:                   8
##########                        HBond_Donors:                   2
##########                         Heavy_Atoms:                  22
##########                          Grid_Score:          -31.751263
##########                     Grid_vdw_energy:          -27.925034
##########                      Grid_es_energy:           -3.826229
##########           Internal_energy_repulsive:           11.646486

@<TRIPOS>MOLECULE
ZINC000337709254
 45 46 1 0 0
SMALL
USER_CHARGES


@<TRIPOS>ATOM
      1 C1          2.7697    2.2898   40.3074 C.3     1  ZINC000337709254   -0.6700
      2 S2          2.3523    1.7705   41.9946 S.o2    1  ZINC000337709254    2.6100
      3 O3          1.1959    0.9445   41.9904 O.2     1  ZINC000337709254   -0.9500
      4 O4          3.5234    1.3878   42.7026 O.2     1  ZINC000337709254   -0.9500
      5 N5          1.8578    3.1615   42.7447 N.am    1  ZINC000337709254   -1.1200
      6 C6          1.4352    3.1271   44.1470 C.3     1  ZINC000337709254    0.1200
      7 C7          1.8052    4.4485   44.8238 C.3     1  ZINC000337709254   -0.1100
      8 H8          2.8807    4.6167   44.7677 H       1  ZINC000337709254    0.1100
      9 C9          1.0377    5.6252   44.1714 C.3     1  ZINC000337709254   -0.1200
     10 C10         1.0352    6.6946   45.2918 C.3     1  ZINC000337709254   -0.1200
     11 C11         0.8410    5.8829   46.5892 C.3     1  ZINC000337709254   -0.1400
     12 C12         1.3338    4.4534   46.2926 C.3     1  ZINC000337709254    0.1500
     13 H13         2.1613    4.1988   46.9549 H       1  ZINC000337709254    0.1000
     14 N14         0.2375    3.4979   46.4698 N.am    1  ZINC000337709254   -0.7200
     15 C15         0.4671    2.3120   47.0674 C.2     1  ZINC000337709254    0.5300
     16 O16         1.5817    2.0351   47.4574 O.2     1  ZINC000337709254   -0.5100
     17 C17        -0.6610    1.3299   47.2512 C.3     1  ZINC000337709254    0.0200
     18 C18        -1.6115    1.8523   48.2464 C.1     1  ZINC000337709254    0.2000
     19 N19        -2.3451    2.2554   49.0145 N.1     1  ZINC000337709254   -0.3900
     20 C20        -1.3797    1.1190   45.9151 C.3     1  ZINC000337709254   -0.1500
     21 C21        -2.4726    0.0620   46.0935 C.3     1  ZINC000337709254    0.0600
     22 O22        -1.8872   -1.1503   46.5731 O.3     1  ZINC000337709254   -0.3700
     23 C23        -1.2419   -1.0246   47.8419 C.3     1  ZINC000337709254    0.0600
     24 C24        -0.0995   -0.0111   47.7337 C.3     1  ZINC000337709254   -0.1300
     25 H25         1.8881    2.7179   39.8304 H       1  ZINC000337709254    0.1300
     26 H26         3.5626    3.0369   40.3429 H       1  ZINC000337709254    0.1300
     27 H27         3.1093    1.4265   39.7350 H       1  ZINC000337709254    0.1300
     28 H28         1.8479    3.9991   42.2556 H       1  ZINC000337709254    0.4200
     29 H29         0.3561    2.9825   44.1980 H       1  ZINC000337709254    0.0600
     30 H30         1.9364    2.3047   44.6574 H       1  ZINC000337709254    0.0900
     31 H31         1.5660    5.9897   43.2904 H       1  ZINC000337709254    0.0800
     32 H32         0.0198    5.3290   43.9177 H       1  ZINC000337709254    0.0700
     33 H33         1.9862    7.2267   45.3133 H       1  ZINC000337709254    0.0700
     34 H34         0.2097    7.3925   45.1512 H       1  ZINC000337709254    0.0700
     35 H35         1.4313    6.3197   47.3947 H       1  ZINC000337709254    0.0800
     36 H36        -0.2133    5.8663   46.8649 H       1  ZINC000337709254    0.0700
     37 H37        -0.6537    3.7188   46.1567 H       1  ZINC000337709254    0.4000
     38 H38        -1.8299    2.0575   45.5916 H       1  ZINC000337709254    0.0900
     39 H39        -0.6640    0.7801   45.1661 H       1  ZINC000337709254    0.1100
     40 H40        -3.2097    0.4190   46.8128 H       1  ZINC000337709254    0.0500
     41 H41        -2.9591   -0.1233   45.1359 H       1  ZINC000337709254    0.1100
     42 H42        -1.9629   -0.6817   48.5840 H       1  ZINC000337709254    0.0500
     43 H43        -0.8417   -1.9925   48.1437 H       1  ZINC000337709254    0.1100
     44 H44         0.6420   -0.3729   47.0214 H       1  ZINC000337709254    0.1100
     45 H45         0.3657    0.1191   48.7107 H       1  ZINC000337709254    0.0900
@<TRIPOS>BOND
     1     1     2    1
     2     1    25    1
     3     1    26    1
     4     1    27    1
     5     2     3    2
     6     2     4    2
     7     2     5   am
     8     5     6    1
     9     5    28    1
    10     6     7    1
    11     6    29    1
    12     6    30    1
    13     7     8    1
    14     7    12    1
    15     7     9    1
    16     9    10    1
    17     9    31    1
    18     9    32    1
    19    10    11    1
    20    10    33    1
    21    10    34    1
    22    11    12    1
    23    11    35    1
    24    11    36    1
    25    12    13    1
    26    12    14    1
    27    14    15   am
    28    14    37    1
    29    15    16    2
    30    15    17    1
    31    17    24    1
    32    17    18    1
    33    17    20    1
    34    18    19    3
    35    20    21    1
    36    20    38    1
    37    20    39    1
    38    21    22    1
    39    21    40    1
    40    21    41    1
    41    22    23    1
    42    23    24    1
    43    23    42    1
    44    23    43    1
    45    24    44    1
    46    24    45    1
@<TRIPOS>SUBSTRUCTURE
     1 ZINC000337709254        1 TEMP              0 ****  ****    0 ROOT


##########                                Name:    ZINC000848949366
##########                DOCK_Rotatable_Bonds:                   8
##########                         Heavy_Atoms:                  25
##########                    Molecular_Weight:             368.773
##########                DOCK_Rotatable_Bonds:                   8
##########                       Formal_Charge:          0.00999947
##########                     HBond_Acceptors:                   9
##########                        HBond_Donors:                   3
##########                         Heavy_Atoms:                  25
##########                          Grid_Score:          -31.725056
##########                     Grid_vdw_energy:          -29.299932
##########                      Grid_es_energy:           -2.425124
##########           Internal_energy_repulsive:           13.412352

@<TRIPOS>MOLECULE
ZINC000848949366
 42 43 1 0 0
SMALL
USER_CHARGES


@<TRIPOS>ATOM
      1 C1        -13.5116   -1.6304   62.1184 C.3     1  ZINC000848949366   -0.1500
      2 C2        -13.7206   -0.9472   60.7654 C.3     1  ZINC000848949366    0.0600
      3 O3        -13.2978   -1.8237   59.7190 O.3     1  ZINC000848949366   -0.3500
      4 C4        -13.3494   -1.3430   58.4590 C.2     1  ZINC000848949366    0.5400
      5 O5        -13.8168   -0.2397   58.2474 O.2     1  ZINC000848949366   -0.4800
      6 C6        -12.8600   -2.1218   57.3843 C.2     1  ZINC000848949366   -0.2300
      7 C7        -11.6778   -1.8366   56.7971 C.2     1  ZINC000848949366    0.2000
      8 C8        -10.8654   -0.6691   57.2949 C.3     1  ZINC000848949366    0.1000
      9 O9        -10.2355   -1.0199   58.5553 O.3     1  ZINC000848949366   -0.3500
     10 C10        -9.2353   -0.2239   58.9818 C.2     1  ZINC000848949366    0.5100
     11 O11        -8.5721    0.4019   58.1785 O.2     1  ZINC000848949366   -0.4800
     12 C12        -8.9458   -0.1123   60.4222 C.ar    1  ZINC000848949366   -0.1600
     13 C13        -9.3691   -1.1111   61.3035 C.ar    1  ZINC000848949366   -0.0300
     14 C14        -9.0955   -1.0011   62.6490 C.ar    1  ZINC000848949366   -0.1300
     15 C15        -8.4016    0.0971   63.1342 C.ar    1  ZINC000848949366    0.0200
     16 Cl16       -8.0640    0.2233   64.8324 Cl      1  ZINC000848949366   -0.0500
     17 C17        -7.9767    1.0918   62.2733 C.ar    1  ZINC000848949366   -0.1500
     18 C18        -8.2387    0.9940   60.9157 C.ar    1  ZINC000848949366    0.1900
     19 O19        -7.8226    1.9692   60.0697 O.3     1  ZINC000848949366   -0.4700
     20 N20       -11.2062   -2.5895   55.7600 N.am    1  ZINC000848949366   -0.6400
     21 C21       -11.8571   -3.6434   55.2514 C.2     1  ZINC000848949366    0.7100
     22 O22       -11.3567   -4.2529   54.3264 O.2     1  ZINC000848949366   -0.5600
     23 N23       -13.0486   -4.0506   55.7320 N.am    1  ZINC000848949366   -0.7100
     24 C24       -13.6415   -3.3079   56.8568 C.3     1  ZINC000848949366    0.2000
     25 H25       -13.7969   -4.0085   57.6773 H       1  ZINC000848949366    0.0900
     26 C26       -15.0133   -2.7960   56.4131 C.3     1  ZINC000848949366   -0.1700
     27 H27       -13.8340   -0.9619   62.9166 H       1  ZINC000848949366    0.0800
     28 H28       -14.0965   -2.5494   62.1555 H       1  ZINC000848949366    0.0700
     29 H29       -12.4552   -1.8665   62.2468 H       1  ZINC000848949366    0.0700
     30 H30       -14.7769   -0.7111   60.6370 H       1  ZINC000848949366    0.0700
     31 H31       -13.1356   -0.0282   60.7282 H       1  ZINC000848949366    0.0700
     32 H32       -10.0977   -0.4216   56.5617 H       1  ZINC000848949366    0.1100
     33 H33       -11.5181    0.1914   57.4420 H       1  ZINC000848949366    0.1000
     34 H34        -9.9105   -1.9678   60.9301 H       1  ZINC000848949366    0.1500
     35 H35        -9.4232   -1.7734   63.3291 H       1  ZINC000848949366    0.1500
     36 H36        -7.4368    1.9442   62.6584 H       1  ZINC000848949366    0.1500
     37 H37        -7.3188    2.6740   60.4993 H       1  ZINC000848949366    0.4000
     38 H38       -10.3520   -2.3471   55.3697 H       1  ZINC000848949366    0.4300
     39 H39       -13.5031   -4.8168   55.3481 H       1  ZINC000848949366    0.4400
     40 H40       -15.6469   -3.6410   56.1439 H       1  ZINC000848949366    0.0700
     41 H41       -15.4754   -2.2410   57.2296 H       1  ZINC000848949366    0.0700
     42 H42       -14.8949   -2.1410   55.5499 H       1  ZINC000848949366    0.0700
@<TRIPOS>BOND
     1     1     2    1
     2     1    27    1
     3     1    28    1
     4     1    29    1
     5     2     3    1
     6     2    30    1
     7     2    31    1
     8     3     4    1
     9     4     5    2
    10     4     6    1
    11     6    24    1
    12     6     7    2
    13     7     8    1
    14     7    20    1
    15     8     9    1
    16     8    32    1
    17     8    33    1
    18     9    10    1
    19    10    11    2
    20    10    12    1
    21    12    18   ar
    22    12    13   ar
    23    13    14   ar
    24    13    34    1
    25    14    15   ar
    26    14    35    1
    27    15    16    1
    28    15    17   ar
    29    17    18   ar
    30    17    36    1
    31    18    19    1
    32    19    37    1
    33    20    21   am
    34    20    38    1
    35    21    22    2
    36    21    23   am
    37    23    24    1
    38    23    39    1
    39    24    25    1
    40    24    26    1
    41    26    40    1
    42    26    41    1
    43    26    42    1
@<TRIPOS>SUBSTRUCTURE
     1 ZINC000848949366        1 TEMP              0 ****  ****    0 ROOT


##########                                Name:    ZINC000265786263
##########                DOCK_Rotatable_Bonds:                   7
##########                         Heavy_Atoms:                  28
##########                    Molecular_Weight:             386.451
##########                DOCK_Rotatable_Bonds:                   7
##########                       Formal_Charge:           0.0499992
##########                     HBond_Acceptors:                   8
##########                        HBond_Donors:                   2
##########                         Heavy_Atoms:                  28
##########                          Grid_Score:          -31.716387
##########                     Grid_vdw_energy:          -30.615221
##########                      Grid_es_energy:           -1.101167
##########           Internal_energy_repulsive:           23.591257

@<TRIPOS>MOLECULE
ZINC000265786263
 54 57 1 0 0
SMALL
USER_CHARGES


@<TRIPOS>ATOM
      1 C1        -10.0925    1.8810   62.0040 C.3     1  ZINC000265786263   -0.1500
      2 C2        -10.4514    0.6745   61.1342 C.3     1  ZINC000265786263    0.1600
      3 C3         -9.5473    0.6140   59.9013 C.3     1  ZINC000265786263   -0.1600
      4 C4         -8.1392    0.0446   60.0851 C.3     1  ZINC000265786263   -0.1600
      5 C5         -9.2028   -0.7690   59.3452 C.3     1  ZINC000265786263   -0.1600
      6 N6        -10.3558   -0.5723   61.9126 N.am    1  ZINC000265786263   -0.7100
      7 C7        -11.5866   -1.1155   61.9219 C.2     1  ZINC000265786263    0.7100
      8 O8        -11.8604   -2.1590   62.4816 O.2     1  ZINC000265786263   -0.5400
      9 N9        -12.4755   -0.3785   61.2460 N.am    1  ZINC000265786263   -0.5600
     10 C10       -13.8894   -0.7302   61.0930 C.3     1  ZINC000265786263    0.1000
     11 C11       -14.0023   -2.1227   60.5280 C.2     1  ZINC000265786263    0.5100
     12 O12       -14.1960   -3.0637   61.2682 O.2     1  ZINC000265786263   -0.5300
     13 N13       -13.8882   -2.3224   59.2000 N.am    1  ZINC000265786263   -0.6100
     14 C14       -13.6453   -1.1964   58.2854 C.3     1  ZINC000265786263    0.1100
     15 C15       -12.4484   -1.5430   57.3936 C.3     1  ZINC000265786263    0.0400
     16 N16       -12.6885   -2.8353   56.7377 N.3     1  ZINC000265786263   -0.5300
     17 C17       -11.6457   -3.1230   55.7438 C.3     1  ZINC000265786263    0.0900
     18 C18       -11.9314   -2.3548   54.4792 C.ar    1  ZINC000265786263   -0.0600
     19 C19       -13.2354   -2.0511   54.1352 C.ar    1  ZINC000265786263   -0.1300
     20 C20       -13.5009   -1.3463   52.9754 C.ar    1  ZINC000265786263   -0.1000
     21 C21       -12.4630   -0.9439   52.1576 C.ar    1  ZINC000265786263   -0.1400
     22 C22       -11.1533   -1.2476   52.5007 C.ar    1  ZINC000265786263    0.1100
     23 O23       -10.1304   -0.8524   51.6978 O.3     1  ZINC000265786263   -0.5000
     24 C24       -10.8893   -1.9497   53.6674 C.ar    1  ZINC000265786263   -0.1200
     25 C25       -12.7919   -3.9211   57.7216 C.3     1  ZINC000265786263    0.0400
     26 C26       -13.9968   -3.6728   58.6275 C.3     1  ZINC000265786263    0.1200
     27 C27       -11.9097    0.7277   60.7241 C.2     1  ZINC000265786263    0.5400
     28 O28       -12.4541    1.5870   60.0645 O.2     1  ZINC000265786263   -0.4500
     29 H29       -10.7205    1.8863   62.8949 H       1  ZINC000265786263    0.0700
     30 H30        -9.0449    1.8180   62.2982 H       1  ZINC000265786263    0.0800
     31 H31       -10.2565    2.7983   61.4385 H       1  ZINC000265786263    0.0900
     32 H32        -9.6725    1.4271   59.1862 H       1  ZINC000265786263    0.1100
     33 H33        -7.3375    0.4833   59.4909 H       1  ZINC000265786263    0.1000
     34 H34        -7.8568   -0.2868   61.0843 H       1  ZINC000265786263    0.1100
     35 H35        -9.6201   -1.6359   59.8575 H       1  ZINC000265786263    0.1000
     36 H36        -9.1009   -0.8657   58.2642 H       1  ZINC000265786263    0.1000
     37 H37        -9.5605   -0.9320   62.3356 H       1  ZINC000265786263    0.4400
     38 H38       -14.3806   -0.6916   62.0653 H       1  ZINC000265786263    0.1300
     39 H39       -14.3684   -0.0233   60.4157 H       1  ZINC000265786263    0.1300
     40 H40       -14.5272   -1.0306   57.6666 H       1  ZINC000265786263    0.0900
     41 H41       -13.4247   -0.2977   58.8616 H       1  ZINC000265786263    0.0900
     42 H42       -12.3225   -0.7688   56.6368 H       1  ZINC000265786263    0.0900
     43 H43       -11.5469   -1.6063   58.0031 H       1  ZINC000265786263    0.0400
     44 H44       -10.6748   -2.8242   56.1391 H       1  ZINC000265786263    0.0900
     45 H45       -11.6362   -4.1909   55.5259 H       1  ZINC000265786263    0.0500
     46 H46       -14.0483   -2.3651   54.7733 H       1  ZINC000265786263    0.1200
     47 H47       -14.5205   -1.1105   52.7088 H       1  ZINC000265786263    0.1300
     48 H48       -12.6709   -0.3939   51.2517 H       1  ZINC000265786263    0.1300
     49 H49        -9.2561   -1.1148   52.0168 H       1  ZINC000265786263    0.3900
     50 H50        -9.8707   -2.1872   53.9365 H       1  ZINC000265786263    0.1300
     51 H51       -12.9151   -4.8717   57.2026 H       1  ZINC000265786263    0.1000
     52 H52       -11.8857   -3.9514   58.3265 H       1  ZINC000265786263    0.0400
     53 H53       -14.0111   -4.4118   59.4287 H       1  ZINC000265786263    0.1000
     54 H54       -14.9147   -3.7438   58.0438 H       1  ZINC000265786263    0.0800
@<TRIPOS>BOND
     1     1     2    1
     2     1    29    1
     3     1    30    1
     4     1    31    1
     5     2    27    1
     6     2     3    1
     7     2     6    1
     8     3     5    1
     9     3     4    1
    10     3    32    1
    11     4     5    1
    12     4    33    1
    13     4    34    1
    14     5    35    1
    15     5    36    1
    16     6     7   am
    17     6    37    1
    18     7     8    2
    19     7     9   am
    20     9    10    1
    21     9    27   am
    22    10    11    1
    23    10    38    1
    24    10    39    1
    25    11    12    2
    26    11    13   am
    27    13    26    1
    28    13    14    1
    29    14    15    1
    30    14    40    1
    31    14    41    1
    32    15    16    1
    33    15    42    1
    34    15    43    1
    35    16    17    1
    36    16    25    1
    37    17    18    1
    38    17    44    1
    39    17    45    1
    40    18    24   ar
    41    18    19   ar
    42    19    20   ar
    43    19    46    1
    44    20    21   ar
    45    20    47    1
    46    21    22   ar
    47    21    48    1
    48    22    23    1
    49    22    24   ar
    50    23    49    1
    51    24    50    1
    52    25    26    1
    53    25    51    1
    54    25    52    1
    55    26    53    1
    56    26    54    1
    57    27    28    2
@<TRIPOS>SUBSTRUCTURE
     1 ZINC000265786263        1 TEMP              0 ****  ****    0 ROOT


##########                                Name:    ZINC000918875053
##########                DOCK_Rotatable_Bonds:                   6
##########                         Heavy_Atoms:                  26
##########                    Molecular_Weight:             359.357
##########                DOCK_Rotatable_Bonds:                   6
##########                       Formal_Charge:           0.0200003
##########                     HBond_Acceptors:                   8
##########                        HBond_Donors:                   0
##########                         Heavy_Atoms:                  26
##########                          Grid_Score:          -31.702944
##########                     Grid_vdw_energy:          -31.528139
##########                      Grid_es_energy:           -0.174804
##########           Internal_energy_repulsive:            6.599864

@<TRIPOS>MOLECULE
ZINC000918875053
 44 47 1 0 0
SMALL
USER_CHARGES


@<TRIPOS>ATOM
      1 C1        -14.9485   -2.1761   59.5037 C.3     1  ZINC000918875053   -0.1700
      2 C2        -13.5931   -2.8861   59.5013 C.3     1  ZINC000918875053    0.1900
      3 H3        -13.7349   -3.9407   59.7375 H       1  ZINC000918875053    0.1400
      4 O4        -12.9838   -2.7615   58.1892 O.3     1  ZINC000918875053   -0.3400
      5 C5        -13.3329   -3.6717   57.2664 C.2     1  ZINC000918875053    0.4800
      6 O6        -13.7463   -4.7535   57.6110 O.2     1  ZINC000918875053   -0.4900
      7 C7        -13.2090   -3.3443   55.8006 C.3     1  ZINC000918875053   -0.0900
      8 H8        -13.2970   -4.2450   55.1931 H       1  ZINC000918875053    0.1400
      9 C9        -14.2566   -2.2880   55.3791 C.3     1  ZINC000918875053   -0.1400
     10 C10       -13.5280   -1.4234   54.3741 C.2     1  ZINC000918875053    0.5300
     11 O11       -14.0622   -0.6584   53.5991 O.2     1  ZINC000918875053   -0.5000
     12 N12       -12.2023   -1.6260   54.4650 N.am    1  ZINC000918875053   -0.5800
     13 C13       -11.2481   -0.9837   53.6661 C.ar    1  ZINC000918875053    0.1000
     14 C14       -10.8127    0.2927   53.9931 C.ar    1  ZINC000918875053   -0.0800
     15 C15        -9.8708    0.9239   53.2034 C.ar    1  ZINC000918875053   -0.1200
     16 C16        -9.3616    0.2862   52.0875 C.ar    1  ZINC000918875053   -0.0800
     17 C17        -9.7923   -0.9860   51.7573 C.ar    1  ZINC000918875053   -0.1500
     18 C18       -10.7303   -1.6259   52.5462 C.ar    1  ZINC000918875053    0.1100
     19 F19       -11.1508   -2.8687   52.2241 F       1  ZINC000918875053   -0.1300
     20 C20       -11.8828   -2.6079   55.5088 C.3     1  ZINC000918875053    0.1200
     21 C21       -12.6945   -2.2564   60.5342 C.2     1  ZINC000918875053    0.1800
     22 N22       -11.3878   -2.1606   60.4785 N.2     1  ZINC000918875053   -0.4600
     23 C23       -11.0224   -1.5306   61.6092 C.2     1  ZINC000918875053    0.2100
     24 C24        -9.6156   -1.1793   62.0196 C.3     1  ZINC000918875053   -0.0900
     25 C25        -8.5550   -1.1098   60.9190 C.3     1  ZINC000918875053   -0.1600
     26 C26        -9.0664    0.1764   61.5711 C.3     1  ZINC000918875053   -0.1500
     27 N27       -12.1052   -1.2800   62.2823 N.2     1  ZINC000918875053   -0.3700
     28 O28       -13.0773   -1.6837   61.6794 O.3     1  ZINC000918875053    0.1000
     29 H29       -15.5985   -2.6315   58.7565 H       1  ZINC000918875053    0.0900
     30 H30       -15.4058   -2.2695   60.4886 H       1  ZINC000918875053    0.0900
     31 H31       -14.8066   -1.1215   59.2675 H       1  ZINC000918875053    0.0800
     32 H32       -15.1179   -2.7689   54.9153 H       1  ZINC000918875053    0.1300
     33 H33       -14.5671   -1.6943   56.2389 H       1  ZINC000918875053    0.1100
     34 H34       -11.2101    0.7925   54.8642 H       1  ZINC000918875053    0.1400
     35 H35        -9.5321    1.9173   53.4581 H       1  ZINC000918875053    0.1400
     36 H36        -8.6261    0.7827   51.4721 H       1  ZINC000918875053    0.1400
     37 H37        -9.3926   -1.4814   50.8849 H       1  ZINC000918875053    0.1400
     38 H38       -11.5275   -2.1020   56.4066 H       1  ZINC000918875053    0.1000
     39 H39       -11.1314   -3.3105   55.1485 H       1  ZINC000918875053    0.1000
     40 H40        -9.3043   -1.5503   62.9962 H       1  ZINC000918875053    0.1400
     41 H41        -7.5458   -1.4351   61.1713 H       1  ZINC000918875053    0.1100
     42 H42        -8.8749   -1.3180   59.8981 H       1  ZINC000918875053    0.1000
     43 H43        -9.7228    0.8143   60.9791 H       1  ZINC000918875053    0.1000
     44 H44        -8.3936    0.6972   62.2523 H       1  ZINC000918875053    0.1100
@<TRIPOS>BOND
     1     1     2    1
     2     1    29    1
     3     1    30    1
     4     1    31    1
     5     2     3    1
     6     2     4    1
     7     2    21    1
     8     4     5    1
     9     5     6    2
    10     5     7    1
    11     7     8    1
    12     7    20    1
    13     7     9    1
    14     9    10    1
    15     9    32    1
    16     9    33    1
    17    10    11    2
    18    10    12   am
    19    12    13    1
    20    12    20    1
    21    13    18   ar
    22    13    14   ar
    23    14    15   ar
    24    14    34    1
    25    15    16   ar
    26    15    35    1
    27    16    17   ar
    28    16    36    1
    29    17    18   ar
    30    17    37    1
    31    18    19    1
    32    20    38    1
    33    20    39    1
    34    21    28    1
    35    21    22    2
    36    22    23    1
    37    23    24    1
    38    23    27    2
    39    24    26    1
    40    24    25    1
    41    24    40    1
    42    25    26    1
    43    25    41    1
    44    25    42    1
    45    26    43    1
    46    26    44    1
    47    27    28    1
@<TRIPOS>SUBSTRUCTURE
     1 ZINC000918875053        1 TEMP              0 ****  ****    0 ROOT


##########                                Name:    ZINC001570985666
##########                DOCK_Rotatable_Bonds:                   7
##########                         Heavy_Atoms:                  26
##########                    Molecular_Weight:             357.415
##########                DOCK_Rotatable_Bonds:                   7
##########                       Formal_Charge:          -0.0100001
##########                     HBond_Acceptors:                   9
##########                        HBond_Donors:                   3
##########                         Heavy_Atoms:                  26
##########                          Grid_Score:          -31.691116
##########                     Grid_vdw_energy:          -26.504612
##########                      Grid_es_energy:           -5.186505
##########           Internal_energy_repulsive:           24.573336

@<TRIPOS>MOLECULE
ZINC001570985666
 49 52 1 0 0
SMALL
USER_CHARGES


@<TRIPOS>ATOM
      1 C1         -1.4723    0.7042   47.7138 C.3     1  ZINC001570985666   -0.1600
      2 C2         -0.9024    2.1196   47.5997 C.3     1  ZINC001570985666    0.1300
      3 H3         -1.5325    2.7211   46.9445 H       1  ZINC001570985666    0.0800
      4 C4          0.5345    2.0632   47.0394 C.3     1  ZINC001570985666    0.1400
      5 H5          0.9827    1.0871   47.2249 H       1  ZINC001570985666    0.1100
      6 N6          0.5448    2.3724   45.6074 N.am    1  ZINC001570985666   -0.7200
      7 C7          1.4911    1.8389   44.8097 C.2     1  ZINC001570985666    0.6000
      8 O8          2.3372    1.1019   45.2788 O.2     1  ZINC001570985666   -0.5300
      9 C9          1.5004    2.1484   43.3694 C.2     1  ZINC001570985666   -0.2300
     10 C10         1.0296    3.2990   42.7746 C.2     1  ZINC001570985666    0.0700
     11 N11         1.2201    3.1949   41.4443 N.pl3   1  ZINC001570985666   -0.5200
     12 C12         1.8109    1.9874   41.1644 C.2     1  ZINC001570985666    0.0600
     13 C13         2.1824    1.4977   39.8180 C.2     1  ZINC001570985666    0.2500
     14 N14         2.7440    0.3394   39.5274 N.2     1  ZINC001570985666   -0.3100
     15 N15         2.9066    0.2900   38.2499 N.pl3   1  ZINC001570985666   -0.2200
     16 N16         2.4667    1.3781   37.7215 N.2     1  ZINC001570985666   -0.0400
     17 N17         2.0086    2.1422   38.6541 N.2     1  ZINC001570985666   -0.2600
     18 C18         2.0017    1.3212   42.3311 C.2     1  ZINC001570985666   -0.0600
     19 C19         1.2665    3.1663   47.8485 C.3     1  ZINC001570985666   -0.1500
     20 C20         0.5831    3.0416   49.2331 C.3     1  ZINC001570985666    0.1000
     21 N21        -0.8311    2.7387   48.9313 N.am    1  ZINC001570985666   -0.6200
     22 C22        -1.8781    2.9874   49.7427 C.2     1  ZINC001570985666    0.5300
     23 O23        -3.0010    2.6943   49.3907 O.2     1  ZINC001570985666   -0.5300
     24 C24        -1.6534    3.6294   51.0875 C.3     1  ZINC001570985666   -0.1300
     25 C25        -1.8090    5.1461   50.9608 C.3     1  ZINC001570985666   -0.1000
     26 C26        -1.2517    5.7149   49.6451 C.3     1  ZINC001570985666   -0.1300
     27 C27        -2.4782    6.6422   49.6181 C.3     1  ZINC001570985666   -0.1400
     28 C28        -3.1990    5.5840   50.4698 C.3     1  ZINC001570985666   -0.1400
     29 H29        -2.4846    0.7514   48.1152 H       1  ZINC001570985666    0.0700
     30 H30        -1.4938    0.2407   46.7276 H       1  ZINC001570985666    0.0700
     31 H31        -0.8445    0.1124   48.3799 H       1  ZINC001570985666    0.0600
     32 H32        -0.1294    2.9611   45.2334 H       1  ZINC001570985666    0.4000
     33 H33         0.5840    4.1393   43.2862 H       1  ZINC001570985666    0.1800
     34 H34         0.9778    3.8669   40.7882 H       1  ZINC001570985666    0.4300
     35 H35         3.2993   -0.4513   37.7628 H       1  ZINC001570985666    0.4800
     36 H36         2.4451    0.3432   42.4468 H       1  ZINC001570985666    0.1600
     37 H37         2.3337    2.9558   47.9190 H       1  ZINC001570985666    0.0900
     38 H38         1.0919    4.1505   47.4138 H       1  ZINC001570985666    0.0800
     39 H39         1.0322    2.2304   49.8061 H       1  ZINC001570985666    0.0800
     40 H40         0.6600    3.9813   49.7800 H       1  ZINC001570985666    0.0800
     41 H41        -2.3849    3.2473   51.7993 H       1  ZINC001570985666    0.0900
     42 H42        -0.6483    3.3954   51.4383 H       1  ZINC001570985666    0.0900
     43 H43        -1.4705    5.6819   51.8477 H       1  ZINC001570985666    0.1000
     44 H44        -0.3065    6.2445   49.7641 H       1  ZINC001570985666    0.0700
     45 H45        -1.2332    4.9915   48.8300 H       1  ZINC001570985666    0.0800
     46 H46        -2.3220    7.5880   50.1370 H       1  ZINC001570985666    0.0800
     47 H47        -2.9076    6.7693   48.6243 H       1  ZINC001570985666    0.0700
     48 H48        -3.7129    4.8248   49.8801 H       1  ZINC001570985666    0.0800
     49 H49        -3.8257    6.0079   51.2544 H       1  ZINC001570985666    0.0700
@<TRIPOS>BOND
     1     1     2    1
     2     1    29    1
     3     1    30    1
     4     1    31    1
     5     2     3    1
     6     2    21    1
     7     2     4    1
     8     4     5    1
     9     4     6    1
    10     4    19    1
    11     6     7   am
    12     6    32    1
    13     7     8    2
    14     7     9    1
    15     9    18    1
    16     9    10    2
    17    10    11    1
    18    10    33    1
    19    11    12    1
    20    11    34    1
    21    12    13    1
    22    12    18    2
    23    13    17    1
    24    13    14    2
    25    14    15    1
    26    15    16    1
    27    15    35    1
    28    16    17    2
    29    18    36    1
    30    19    20    1
    31    19    37    1
    32    19    38    1
    33    20    21    1
    34    20    39    1
    35    20    40    1
    36    21    22   am
    37    22    23    2
    38    22    24    1
    39    24    25    1
    40    24    41    1
    41    24    42    1
    42    25    28    1
    43    25    26    1
    44    25    43    1
    45    26    27    1
    46    26    44    1
    47    26    45    1
    48    27    28    1
    49    27    46    1
    50    27    47    1
    51    28    48    1
    52    28    49    1
@<TRIPOS>SUBSTRUCTURE
     1 ZINC001570985666        1 TEMP              0 ****  ****    0 ROOT


##########                                Name:    ZINC000265724350
##########                DOCK_Rotatable_Bonds:                   8
##########                         Heavy_Atoms:                  23
##########                    Molecular_Weight:              345.42
##########                DOCK_Rotatable_Bonds:                   8
##########                       Formal_Charge:          -0.0300002
##########                     HBond_Acceptors:                   9
##########                        HBond_Donors:                   2
##########                         Heavy_Atoms:                  23
##########                          Grid_Score:          -31.687056
##########                     Grid_vdw_energy:          -30.782076
##########                      Grid_es_energy:           -0.904979
##########           Internal_energy_repulsive:            7.088123

@<TRIPOS>MOLECULE
ZINC000265724350
 46 47 1 0 0
SMALL
USER_CHARGES


@<TRIPOS>ATOM
      1 C1         -5.4199    3.0809   54.9430 C.3     1  ZINC000265724350    0.0800
      2 N2         -6.5235    3.8018   54.3038 N.am    1  ZINC000265724350   -1.1100
      3 S3         -6.8350    3.5790   52.6927 S.o2    1  ZINC000265724350    2.7200
      4 O4         -6.9741    2.1779   52.5009 O.2     1  ZINC000265724350   -0.9300
      5 O5         -7.8463    4.5151   52.3462 O.2     1  ZINC000265724350   -0.9300
      6 C6         -5.3878    4.0607   51.8103 C.2     1  ZINC000265724350   -0.5600
      7 C7         -5.1244    5.3034   51.3492 C.2     1  ZINC000265724350   -0.0900
      8 C8         -3.8757    5.2508   50.7104 C.2     1  ZINC000265724350   -0.1400
      9 C9         -3.4350    3.9626   50.8153 C.2     1  ZINC000265724350   -0.0200
     10 C10        -2.1695    3.4393   50.2903 C.2     1  ZINC000265724350    0.6000
     11 O11        -1.8362    2.2946   50.5348 O.2     1  ZINC000265724350   -0.5000
     12 N12        -1.3758    4.2259   49.5369 N.am    1  ZINC000265724350   -0.7100
     13 C13        -0.1125    3.7025   49.0110 C.3     1  ZINC000265724350    0.1200
     14 C14        -0.2932    3.3152   47.5419 C.3     1  ZINC000265724350   -0.1100
     15 H15        -1.3381    3.4416   47.2586 H       1  ZINC000265724350    0.0800
     16 C16         0.5846    4.2117   46.6665 C.3     1  ZINC000265724350   -0.1400
     17 C17         0.1151    1.8538   47.3459 C.3     1  ZINC000265724350    0.0600
     18 N18        -1.0647    1.0614   46.9742 N.3     1  ZINC000265724350   -0.5300
     19 C19        -0.9107   -0.3401   47.3903 C.3     1  ZINC000265724350    0.0100
     20 C20        -2.1836   -1.1144   47.0381 C.3     1  ZINC000265724350    0.0600
     21 O21        -2.4382   -0.9907   45.6362 O.3     1  ZINC000265724350   -0.3900
     22 C22        -2.5942    0.3612   45.1964 C.3     1  ZINC000265724350    0.0600
     23 C23        -1.3255    1.1503   45.5300 C.3     1  ZINC000265724350    0.0200
     24 O24        -4.3651    3.2570   51.4914 O.3     1  ZINC000265724350   -0.1100
     25 H25        -5.3700    3.3537   55.9972 H       1  ZINC000265724350    0.0900
     26 H26        -5.5867    2.0075   54.8531 H       1  ZINC000265724350    0.0600
     27 H27        -4.4820    3.3451   54.4545 H       1  ZINC000265724350    0.0700
     28 H28        -7.0717    4.4097   54.8242 H       1  ZINC000265724350    0.4200
     29 H29        -5.7559    6.1733   51.4528 H       1  ZINC000265724350    0.1800
     30 H30        -3.3629    6.0703   50.2290 H       1  ZINC000265724350    0.1700
     31 H31        -1.6408    5.1386   49.3430 H       1  ZINC000265724350    0.4100
     32 H32         0.6598    4.4672   49.0928 H       1  ZINC000265724350    0.0800
     33 H33         0.1837    2.8242   49.5845 H       1  ZINC000265724350    0.0700
     34 H34         0.2938    5.2529   46.8060 H       1  ZINC000265724350    0.0500
     35 H35         1.6296    4.0852   46.9497 H       1  ZINC000265724350    0.0600
     36 H36         0.4560    3.9358   45.6198 H       1  ZINC000265724350    0.0700
     37 H37         0.8611    1.7879   46.5540 H       1  ZINC000265724350    0.0800
     38 H38         0.5352    1.4663   48.2741 H       1  ZINC000265724350    0.0400
     39 H39        -0.0603   -0.7825   46.8715 H       1  ZINC000265724350    0.0400
     40 H40        -0.7441   -0.3840   48.4666 H       1  ZINC000265724350    0.0900
     41 H41        -2.0522   -2.1660   47.2928 H       1  ZINC000265724350    0.1000
     42 H42        -3.0248   -0.7059   47.5982 H       1  ZINC000265724350    0.0600
     43 H43        -2.7598    0.3767   44.1192 H       1  ZINC000265724350    0.1000
     44 H44        -3.4473    0.8125   45.7029 H       1  ZINC000265724350    0.0600
     45 H45        -1.4616    2.1944   45.2484 H       1  ZINC000265724350    0.0900
     46 H46        -0.4816    0.7317   44.9814 H       1  ZINC000265724350    0.0400
@<TRIPOS>BOND
     1     1     2    1
     2     1    25    1
     3     1    26    1
     4     1    27    1
     5     2     3   am
     6     2    28    1
     7     3     4    2
     8     3     5    2
     9     3     6    1
    10     6    24    1
    11     6     7    2
    12     7     8    1
    13     7    29    1
    14     8     9    2
    15     8    30    1
    16     9    10    1
    17     9    24    1
    18    10    11    2
    19    10    12   am
    20    12    13    1
    21    12    31    1
    22    13    14    1
    23    13    32    1
    24    13    33    1
    25    14    15    1
    26    14    16    1
    27    14    17    1
    28    16    34    1
    29    16    35    1
    30    16    36    1
    31    17    18    1
    32    17    37    1
    33    17    38    1
    34    18    23    1
    35    18    19    1
    36    19    20    1
    37    19    39    1
    38    19    40    1
    39    20    21    1
    40    20    41    1
    41    20    42    1
    42    21    22    1
    43    22    23    1
    44    22    43    1
    45    22    44    1
    46    23    45    1
    47    23    46    1
@<TRIPOS>SUBSTRUCTURE
     1 ZINC000265724350        1 TEMP              0 ****  ****    0 ROOT


##########                                Name:    ZINC000599797189
##########                DOCK_Rotatable_Bonds:                  13
##########                         Heavy_Atoms:                  23
##########                    Molecular_Weight:             329.313
##########                DOCK_Rotatable_Bonds:                  13
##########                       Formal_Charge:          0.00999949
##########                     HBond_Acceptors:                  11
##########                        HBond_Donors:                   3
##########                         Heavy_Atoms:                  23
##########                          Grid_Score:          -31.677589
##########                     Grid_vdw_energy:          -28.715387
##########                      Grid_es_energy:           -2.962201
##########           Internal_energy_repulsive:           12.635082

@<TRIPOS>MOLECULE
ZINC000599797189
 42 42 1 0 0
SMALL
USER_CHARGES


@<TRIPOS>ATOM
      1 C1         -1.1357   -1.9913   47.9124 C.3     1  ZINC000599797189   -0.1500
      2 C2         -1.0177   -0.4749   48.0790 C.3     1  ZINC000599797189    0.0600
      3 O3         -0.0005    0.0335   47.1763 O.3     1  ZINC000599797189   -0.3600
      4 C4          0.3024    1.3376   47.2719 C.2     1  ZINC000599797189    0.4500
      5 O5          1.4468    1.6803   47.4529 O.2     1  ZINC000599797189   -0.4800
      6 C6         -0.7849    2.3743   47.1537 C.3     1  ZINC000599797189    0.1500
      7 N7         -1.1844    2.8177   48.4916 N.pl3   1  ZINC000599797189   -0.3800
      8 C8         -0.5994    3.7765   49.2291 C.2     1  ZINC000599797189    0.2800
      9 N9         -1.2495    3.8756   50.3606 N.2     1  ZINC000599797189   -0.5100
     10 C10        -2.2558    2.9967   50.3824 C.2     1  ZINC000599797189    0.4700
     11 N11        -3.1614    2.8216   51.4340 N.am    1  ZINC000599797189   -0.6400
     12 C12        -4.2132    3.6544   51.5634 C.2     1  ZINC000599797189    0.7100
     13 O13        -4.3739    4.5590   50.7670 O.2     1  ZINC000599797189   -0.5300
     14 N14        -5.0866    3.4846   52.5757 N.am    1  ZINC000599797189   -0.7300
     15 C15        -6.2307    4.3888   52.7154 C.3     1  ZINC000599797189    0.1100
     16 C16        -7.4040    3.6337   53.3431 C.3     1  ZINC000599797189    0.1100
     17 H17        -8.2889    4.2699   53.3402 H       1  ZINC000599797189    0.1200
     18 O18        -7.6665    2.4490   52.5882 O.3     1  ZINC000599797189   -0.5400
     19 C19        -7.0539    3.2535   54.7832 C.3     1  ZINC000599797189   -0.1500
     20 C20        -8.2414    2.5883   55.4300 C.2     1  ZINC000599797189    0.4600
     21 O21        -9.3508    2.7695   54.9870 O.2     1  ZINC000599797189   -0.4900
     22 O22        -8.0666    1.7946   56.4982 O.3     1  ZINC000599797189   -0.3600
     23 C23        -6.7183    1.6883   57.0269 C.3     1  ZINC000599797189    0.0400
     24 N24        -2.2580    2.3287   49.2536 N.2     1  ZINC000599797189   -0.3200
     25 H25        -1.8994   -2.3730   48.5901 H       1  ZINC000599797189    0.0800
     26 H26        -1.4135   -2.2232   46.8843 H       1  ZINC000599797189    0.0700
     27 H27        -0.1783   -2.4579   48.1441 H       1  ZINC000599797189    0.0700
     28 H28        -1.9752   -0.0083   47.8473 H       1  ZINC000599797189    0.0700
     29 H29        -0.7398   -0.2430   49.1072 H       1  ZINC000599797189    0.0700
     30 H30        -0.4140    3.2265   46.5841 H       1  ZINC000599797189    0.1500
     31 H31        -1.6450    1.9421   46.6423 H       1  ZINC000599797189    0.1300
     32 H32         0.2592    4.3637   48.9386 H       1  ZINC000599797189    0.2300
     33 H33        -3.0325    2.1006   52.0701 H       1  ZINC000599797189    0.4200
     34 H34        -4.9577    2.7637   53.2118 H       1  ZINC000599797189    0.4000
     35 H35        -5.9549    5.2278   53.3544 H       1  ZINC000599797189    0.0800
     36 H36        -6.5219    4.7608   51.7331 H       1  ZINC000599797189    0.0800
     37 H37        -8.4615    1.9737   52.8660 H       1  ZINC000599797189    0.3800
     38 H38        -6.2082    2.5658   54.7822 H       1  ZINC000599797189    0.1200
     39 H39        -6.7913    4.1516   55.3425 H       1  ZINC000599797189    0.1200
     40 H40        -6.0562    1.2928   56.2568 H       1  ZINC000599797189    0.0600
     41 H41        -6.3699    2.6743   57.3345 H       1  ZINC000599797189    0.0600
     42 H42        -6.7170    1.0180   57.8865 H       1  ZINC000599797189    0.1000
@<TRIPOS>BOND
     1     1     2    1
     2     1    25    1
     3     1    26    1
     4     1    27    1
     5     2     3    1
     6     2    28    1
     7     2    29    1
     8     3     4    1
     9     4     5    2
    10     4     6    1
    11     6     7    1
    12     6    30    1
    13     6    31    1
    14     7    24    1
    15     7     8    1
    16     8     9    2
    17     8    32    1
    18     9    10    1
    19    10    11    1
    20    10    24    2
    21    11    12   am
    22    11    33    1
    23    12    13    2
    24    12    14   am
    25    14    15    1
    26    14    34    1
    27    15    16    1
    28    15    35    1
    29    15    36    1
    30    16    17    1
    31    16    18    1
    32    16    19    1
    33    18    37    1
    34    19    20    1
    35    19    38    1
    36    19    39    1
    37    20    21    2
    38    20    22    1
    39    22    23    1
    40    23    40    1
    41    23    41    1
    42    23    42    1
@<TRIPOS>SUBSTRUCTURE
     1 ZINC000599797189        1 TEMP              0 ****  ****    0 ROOT


##########                                Name:    ZINC001169875900
##########                DOCK_Rotatable_Bonds:                   9
##########                         Heavy_Atoms:                  24
##########                    Molecular_Weight:             329.399
##########                DOCK_Rotatable_Bonds:                   9
##########                       Formal_Charge:          -0.0500002
##########                     HBond_Acceptors:                   6
##########                        HBond_Donors:                   1
##########                         Heavy_Atoms:                  24
##########                          Grid_Score:          -31.665268
##########                     Grid_vdw_energy:          -31.260609
##########                      Grid_es_energy:           -0.404659
##########           Internal_energy_repulsive:            7.798684

@<TRIPOS>MOLECULE
ZINC001169875900
 47 48 1 0 0
SMALL
USER_CHARGES


@<TRIPOS>ATOM
      1 C1         -0.9522   -2.5405   48.3563 C.3     1  ZINC001169875900   -0.1500
      2 C2         -1.7101   -1.3303   47.8070 C.3     1  ZINC001169875900   -0.1300
      3 C3         -0.8482   -0.0756   47.9613 C.3     1  ZINC001169875900    0.0700
      4 O4         -1.5987    1.0707   47.5556 O.3     1  ZINC001169875900   -0.3100
      5 C5         -1.9169    1.9721   48.5199 C.ar    1  ZINC001169875900    0.2700
      6 N6         -2.7597    1.6316   49.4797 N.ar    1  ZINC001169875900   -0.5000
      7 C7         -3.1027    2.4763   50.4339 C.ar    1  ZINC001169875900    0.0600
      8 C8         -2.5802    3.7604   50.4650 C.ar    1  ZINC001169875900    0.1400
      9 N9         -2.9488    4.6514   51.4799 N.pl3   1  ZINC001169875900   -0.7400
     10 C10        -2.0254    4.9273   52.5831 C.3     1  ZINC001169875900    0.1800
     11 C11        -2.3432    4.0194   53.7433 C.ar    1  ZINC001169875900    0.1000
     12 C12        -1.3188    3.3292   54.3715 C.ar    1  ZINC001169875900   -0.1200
     13 C13        -1.6156    2.4951   55.4383 C.ar    1  ZINC001169875900   -0.0800
     14 C14        -2.9369    2.3811   55.8405 C.ar    1  ZINC001169875900   -0.1000
     15 C15        -3.9157    3.1050   55.1624 C.ar    1  ZINC001169875900    0.0900
     16 C16        -5.3320    2.9942   55.5798 C.2     1  ZINC001169875900    0.5200
     17 O17        -6.1386    3.8267   55.2180 O.2     1  ZINC001169875900   -0.5000
     18 O18        -5.7258    1.9700   56.3607 O.3     1  ZINC001169875900   -0.3300
     19 C19        -7.1086    1.9724   56.8034 C.3     1  ZINC001169875900    0.0600
     20 C20        -7.2950    3.0352   57.8882 C.3     1  ZINC001169875900   -0.1500
     21 N21        -3.5881    3.8970   54.1488 N.ar    1  ZINC001169875900   -0.4200
     22 C22        -1.6837    4.1527   49.4725 C.ar    1  ZINC001169875900   -0.1200
     23 C23        -1.3487    3.2390   48.4893 C.ar    1  ZINC001169875900   -0.1000
     24 C24        -0.3837    3.6159   47.3948 C.3     1  ZINC001169875900   -0.1000
     25 H25        -0.7283   -2.3809   49.4110 H       1  ZINC001169875900    0.0600
     26 H26        -1.5663   -3.4343   48.2464 H       1  ZINC001169875900    0.0600
     27 H27        -0.0220   -2.6684   47.8028 H       1  ZINC001169875900    0.0600
     28 H28        -2.6404   -1.2023   48.3605 H       1  ZINC001169875900    0.0700
     29 H29        -1.9340   -1.4899   46.7522 H       1  ZINC001169875900    0.0700
     30 H30         0.0412   -0.1669   47.3377 H       1  ZINC001169875900    0.0600
     31 H31        -0.5510    0.0351   49.0041 H       1  ZINC001169875900    0.0600
     32 H32        -3.7984    2.1641   51.1987 H       1  ZINC001169875900    0.1500
     33 H33        -3.8155    5.0859   51.4525 H       1  ZINC001169875900    0.4000
     34 H34        -1.0017    4.7504   52.2532 H       1  ZINC001169875900    0.0800
     35 H35        -2.1321    5.9663   52.8951 H       1  ZINC001169875900    0.0800
     36 H36        -0.2992    3.4399   54.0331 H       1  ZINC001169875900    0.1500
     37 H37        -0.8348    1.9468   55.9444 H       1  ZINC001169875900    0.1500
     38 H38        -3.2042    1.7401   56.6676 H       1  ZINC001169875900    0.1500
     39 H39        -7.7601    2.1970   55.9590 H       1  ZINC001169875900    0.0700
     40 H40        -7.3624    0.9924   57.2075 H       1  ZINC001169875900    0.0700
     41 H41        -6.6435    2.8106   58.7327 H       1  ZINC001169875900    0.0700
     42 H42        -7.0412    4.0152   57.4841 H       1  ZINC001169875900    0.0700
     43 H43        -8.3331    3.0370   58.2205 H       1  ZINC001169875900    0.0800
     44 H44        -1.2609    5.1465   49.4709 H       1  ZINC001169875900    0.1400
     45 H45         0.6323    3.3740   47.7070 H       1  ZINC001169875900    0.0700
     46 H46        -0.4581    4.6852   47.1970 H       1  ZINC001169875900    0.0700
     47 H47        -0.6272    3.0610   46.4887 H       1  ZINC001169875900    0.0700
@<TRIPOS>BOND
     1     1     2    1
     2     1    25    1
     3     1    26    1
     4     1    27    1
     5     2     3    1
     6     2    28    1
     7     2    29    1
     8     3     4    1
     9     3    30    1
    10     3    31    1
    11     4     5    1
    12     5    23   ar
    13     5     6   ar
    14     6     7   ar
    15     7     8   ar
    16     7    32    1
    17     8     9    1
    18     8    22   ar
    19     9    10    1
    20     9    33    1
    21    10    11    1
    22    10    34    1
    23    10    35    1
    24    11    21   ar
    25    11    12   ar
    26    12    13   ar
    27    12    36    1
    28    13    14   ar
    29    13    37    1
    30    14    15   ar
    31    14    38    1
    32    15    16    1
    33    15    21   ar
    34    16    17    2
    35    16    18    1
    36    18    19    1
    37    19    20    1
    38    19    39    1
    39    19    40    1
    40    20    41    1
    41    20    42    1
    42    20    43    1
    43    22    23   ar
    44    22    44    1
    45    23    24    1
    46    24    45    1
    47    24    46    1
    48    24    47    1
@<TRIPOS>SUBSTRUCTURE
     1 ZINC001169875900        1 TEMP              0 ****  ****    0 ROOT


##########                                Name:    ZINC001411334959
##########                DOCK_Rotatable_Bonds:                   9
##########                         Heavy_Atoms:                  24
##########                    Molecular_Weight:              339.37
##########                DOCK_Rotatable_Bonds:                   9
##########                       Formal_Charge:           0.0199995
##########                     HBond_Acceptors:                   9
##########                        HBond_Donors:                   3
##########                         Heavy_Atoms:                  24
##########                          Grid_Score:          -31.661558
##########                     Grid_vdw_energy:          -28.893415
##########                      Grid_es_energy:           -2.768143
##########           Internal_energy_repulsive:           12.047659

@<TRIPOS>MOLECULE
ZINC001411334959
 46 48 1 0 0
SMALL
USER_CHARGES


@<TRIPOS>ATOM
      1 O1          1.6656    6.2660   46.9906 O.2     1  ZINC001411334959   -0.5400
      2 C2          1.0314    6.8107   46.1120 C.2     1  ZINC001411334959    0.5200
      3 C3          0.3617    8.1347   46.3761 C.3     1  ZINC001411334959   -0.1400
      4 C4         -1.0585    7.8940   46.8917 C.3     1  ZINC001411334959   -0.0100
      5 C5         -1.0007    7.0972   48.1696 C.2     1  ZINC001411334959    0.0100
      6 N6         -0.9206    7.5685   49.3933 N.2     1  ZINC001411334959   -0.2800
      7 N7         -0.8934    6.5799   50.2153 N.pl3   1  ZINC001411334959   -0.2500
      8 N8         -0.9526    5.4608   49.5845 N.2     1  ZINC001411334959   -0.2800
      9 C9         -1.0275    5.7065   48.2961 C.2     1  ZINC001411334959   -0.0200
     10 N10         0.9301    6.2347   44.8977 N.am    1  ZINC001411334959   -0.7200
     11 C11         1.5811    4.9477   44.6410 C.3     1  ZINC001411334959    0.1200
     12 C12         1.1602    3.8384   45.6195 C.3     1  ZINC001411334959   -0.1400
     13 C13         1.1539    2.8850   44.4129 C.3     1  ZINC001411334959   -0.1200
     14 C14        -0.0099    1.8919   44.4225 C.3     1  ZINC001411334959    0.1300
     15 N15        -0.0127    1.1552   45.6888 N.am    1  ZINC001411334959   -0.7200
     16 C16        -1.1654    0.6516   46.1729 C.2     1  ZINC001411334959    0.5100
     17 O17        -2.2000    0.8071   45.5595 O.2     1  ZINC001411334959   -0.5100
     18 C18        -1.1686   -0.1047   47.4763 C.3     1  ZINC001411334959    0.0700
     19 F19        -1.6688    0.6931   48.5111 F       1  ZINC001411334959   -0.1800
     20 C20        -1.9787   -1.4235   47.3482 C.3     1  ZINC001411334959   -0.1600
     21 C21        -1.2809   -2.3023   48.4167 C.3     1  ZINC001411334959    0.0500
     22 O22         0.1083   -1.9432   48.3487 O.3     1  ZINC001411334959   -0.3700
     23 C23         0.2463   -0.6210   47.8155 C.3     1  ZINC001411334959    0.0400
     24 C24         0.9005    4.1226   43.5360 C.3     1  ZINC001411334959   -0.1400
     25 H25         0.9310    8.6871   47.1238 H       1  ZINC001411334959    0.1000
     26 H26         0.3199    8.7115   45.4521 H       1  ZINC001411334959    0.1000
     27 H27        -1.5430    8.8517   47.0822 H       1  ZINC001411334959    0.1000
     28 H28        -1.6276    7.3413   46.1442 H       1  ZINC001411334959    0.0900
     29 H29        -0.8360    6.6666   51.1797 H       1  ZINC001411334959    0.4700
     30 H30        -1.0899    4.9816   47.4980 H       1  ZINC001411334959    0.2000
     31 H31         0.4261    6.6723   44.1938 H       1  ZINC001411334959    0.4000
     32 H32         2.6604    5.0363   44.5176 H       1  ZINC001411334959    0.1200
     33 H33         1.9217    3.5986   46.3615 H       1  ZINC001411334959    0.0800
     34 H34         0.1745    3.9940   46.0581 H       1  ZINC001411334959    0.0900
     35 H35         2.1163    2.4075   44.2288 H       1  ZINC001411334959    0.1000
     36 H36        -0.9501    2.4329   44.3149 H       1  ZINC001411334959    0.0800
     37 H37         0.1031    1.1916   43.5949 H       1  ZINC001411334959    0.0800
     38 H38         0.8150    1.0298   46.1788 H       1  ZINC001411334959    0.4100
     39 H39        -3.0286   -1.2651   47.5946 H       1  ZINC001411334959    0.1000
     40 H40        -1.8714   -1.8553   46.3532 H       1  ZINC001411334959    0.1100
     41 H41        -1.6803   -2.0828   49.4068 H       1  ZINC001411334959    0.0700
     42 H42        -1.4106   -3.3587   48.1811 H       1  ZINC001411334959    0.1000
     43 H43         0.8563   -0.6481   46.9126 H       1  ZINC001411334959    0.0900
     44 H44         0.7096    0.0301   48.5568 H       1  ZINC001411334959    0.0900
     45 H45        -0.1562    4.3560   43.4051 H       1  ZINC001411334959    0.0900
     46 H46         1.4523    4.1123   42.5962 H       1  ZINC001411334959    0.0800
@<TRIPOS>BOND
     1     1     2    2
     2     2     3    1
     3     2    10   am
     4     3     4    1
     5     3    25    1
     6     3    26    1
     7     4     5    1
     8     4    27    1
     9     4    28    1
    10     5     9    1
    11     5     6    2
    12     6     7    1
    13     7     8    1
    14     7    29    1
    15     8     9    2
    16     9    30    1
    17    10    11    1
    18    10    31    1
    19    11    24    1
    20    11    12    1
    21    11    32    1
    22    12    13    1
    23    12    33    1
    24    12    34    1
    25    13    14    1
    26    13    24    1
    27    13    35    1
    28    14    15    1
    29    14    36    1
    30    14    37    1
    31    15    16   am
    32    15    38    1
    33    16    17    2
    34    16    18    1
    35    18    23    1
    36    18    19    1
    37    18    20    1
    38    20    21    1
    39    20    39    1
    40    20    40    1
    41    21    22    1
    42    21    41    1
    43    21    42    1
    44    22    23    1
    45    23    43    1
    46    23    44    1
    47    24    45    1
    48    24    46    1
@<TRIPOS>SUBSTRUCTURE
     1 ZINC001411334959        1 TEMP              0 ****  ****    0 ROOT


##########                                Name:     oleObject15.pdb
##########                DOCK_Rotatable_Bonds:                   9
##########                         Heavy_Atoms:                  29
##########                    Molecular_Weight:             395.545
##########                DOCK_Rotatable_Bonds:                   9
##########                       Formal_Charge:         0.000700183
##########                     HBond_Acceptors:                   5
##########                        HBond_Donors:                   1
##########                         Heavy_Atoms:                  29
##########                          Grid_Score:          -31.659885
##########                     Grid_vdw_energy:          -31.024330
##########                      Grid_es_energy:           -0.635554
##########           Internal_energy_repulsive:           12.156867

@<TRIPOS>MOLECULE
oleObject15.pdb
 62 64 1 0 0
SMALL
NO_CHARGES


@<TRIPOS>ATOM
      1 O          -1.1780    4.6182   52.1343 O.3     1  UNL        -0.3745
      2 C          -1.6850    3.6111   51.2297 C.3     1  UNL         0.0600
      3 C          -0.6336    3.3696   50.1218 C.3     1  UNL         0.0217
      4 N          -0.8464    2.1364   49.3286 N.4     1  UNL        -0.3010
      5 C          -2.0460    2.1586   48.4606 C.3     1  UNL        -0.0010
      6 C          -2.2784    0.7985   47.7671 C.3     1  UNL        -0.0289
      7 C          -1.0368    0.3009   46.9885 C.3     1  UNL         0.0382
      8 C           0.2201    0.3709   47.8921 C.3     1  UNL        -0.0289
      9 C           0.3822    1.7288   48.6146 C.3     1  UNL        -0.0010
     10 C          -0.8494    1.0702   45.6572 C.2     1  UNL         0.2156
     11 O          -1.5862    0.8963   44.7035 O.2     1  UNL        -0.2774
     12 N           0.1552    2.0230   45.5457 N.am    1  UNL        -0.3025
     13 C           0.4854    2.8502   44.3700 C.3     1  UNL         0.0900
     14 C           1.1192    4.1890   44.7433 C.ar    1  UNL        -0.0217
     15 C           1.9068    4.3241   45.9046 C.ar    1  UNL        -0.0568
     16 C           2.4719    5.5654   46.2397 C.ar    1  UNL        -0.0619
     17 C           2.2573    6.6809   45.4154 C.ar    1  UNL        -0.0622
     18 C           1.4792    6.5532   44.2541 C.ar    1  UNL        -0.0619
     19 C           0.9145    5.3118   43.9190 C.ar    1  UNL        -0.0568
     20 C           1.3646    2.0947   43.3778 C.ar    1  UNL         0.0652
     21 C           1.1697    2.1996   41.9850 C.ar    1  UNL        -0.0383
     22 C           2.0061    1.4726   41.1229 C.ar    1  UNL        -0.0588
     23 C           3.0076    0.6647   41.6831 C.ar    1  UNL        -0.0438
     24 C           3.1317    0.6164   43.0821 C.ar    1  UNL         0.0272
     25 N           2.3293    1.3138   43.9117 N.ar    1  UNL        -0.2590
     26 C          -1.9781    5.0286   53.2684 C.3     1  UNL         0.0599
     27 C          -3.3996    5.4160   52.7889 C.3     1  UNL        -0.0364
     28 C          -2.0496    3.7825   54.1798 C.3     1  UNL        -0.0364
     29 C          -1.2839    6.1957   54.0140 C.3     1  UNL        -0.0364
     30 H          -2.6170    3.9517   50.7628 H       1  UNL         0.0581
     31 H          -1.8901    2.6705   51.7522 H       1  UNL         0.0581
     32 H           0.3513    3.3217   50.6037 H       1  UNL         0.0455
     33 H          -0.6265    4.2385   49.4516 H       1  UNL         0.0455
     34 H          -1.9393    2.9424   47.6997 H       1  UNL         0.0431
     35 H          -2.9417    2.3858   49.0505 H       1  UNL         0.0431
     36 H          -3.1445    0.8694   47.0990 H       1  UNL         0.0288
     37 H          -2.5356    0.0572   48.5349 H       1  UNL         0.0288
     38 H          -1.1917   -0.7589   46.7701 H       1  UNL         0.0402
     39 H           1.1198    0.1517   47.3033 H       1  UNL         0.0288
     40 H           0.1464   -0.4152   48.6549 H       1  UNL         0.0288
     41 H           0.6561    2.5000   47.8840 H       1  UNL         0.0431
     42 H           1.2133    1.6446   49.3266 H       1  UNL         0.0431
     43 H           0.6546    2.2318   46.4007 H       1  UNL         0.1504
     44 H          -0.4606    3.0543   43.8523 H       1  UNL         0.0624
     45 H           2.0744    3.4706   46.5550 H       1  UNL         0.0626
     46 H           3.0736    5.6624   47.1388 H       1  UNL         0.0623
     47 H           2.6939    7.6412   45.6749 H       1  UNL         0.0623
     48 H           1.3143    7.4151   43.6137 H       1  UNL         0.0623
     49 H           0.3148    5.2232   43.0174 H       1  UNL         0.0626
     50 H           0.3859    2.8314   41.5783 H       1  UNL         0.0643
     51 H           1.8801    1.5337   40.0457 H       1  UNL         0.0624
     52 H           3.6737    0.0874   41.0486 H       1  UNL         0.0639
     53 H           3.8964    0.0001   43.5536 H       1  UNL         0.0840
     54 H          -3.8237    4.6298   52.1512 H       1  UNL         0.0260
     55 H          -3.3924    6.3531   52.2194 H       1  UNL         0.0260
     56 H          -4.0721    5.5570   53.6444 H       1  UNL         0.0260
     57 H          -2.5098    2.9379   53.6511 H       1  UNL         0.0260
     58 H          -2.6452    3.9851   55.0790 H       1  UNL         0.0260
     59 H          -1.0459    3.4746   54.5001 H       1  UNL         0.0260
     60 H          -1.2912    7.1158   53.4166 H       1  UNL         0.0260
     61 H          -0.2409    5.9452   54.2466 H       1  UNL         0.0260
     62 H          -1.7981    6.4124   54.9588 H       1  UNL         0.0260
@<TRIPOS>BOND
     1     1     2    1
     2     1    26    1
     3     2     3    1
     4     2    30    1
     5     2    31    1
     6     3     4    1
     7     3    32    1
     8     3    33    1
     9     4     5    1
    10     4     9    1
    11     5     6    1
    12     5    34    1
    13     5    35    1
    14     6     7    1
    15     6    36    1
    16     6    37    1
    17     7     8    1
    18     7    10    1
    19     7    38    1
    20     8     9    1
    21     8    39    1
    22     8    40    1
    23     9    41    1
    24     9    42    1
    25    10    11    2
    26    10    12   am
    27    12    13    1
    28    12    43    1
    29    13    14    1
    30    13    20    1
    31    13    44    1
    32    14    15   ar
    33    14    19   ar
    34    15    16   ar
    35    15    45    1
    36    16    17   ar
    37    16    46    1
    38    17    18   ar
    39    17    47    1
    40    18    19   ar
    41    18    48    1
    42    19    49    1
    43    20    21   ar
    44    20    25   ar
    45    21    22   ar
    46    21    50    1
    47    22    23   ar
    48    22    51    1
    49    23    24   ar
    50    23    52    1
    51    24    25   ar
    52    24    53    1
    53    26    27    1
    54    26    28    1
    55    26    29    1
    56    27    54    1
    57    27    55    1
    58    27    56    1
    59    28    57    1
    60    28    58    1
    61    28    59    1
    62    29    60    1
    63    29    61    1
    64    29    62    1
@<TRIPOS>SUBSTRUCTURE
     1 UNL         1 TEMP              0 ****  ****    0 ROOT


##########                                Name:    ZINC000301324012
##########                DOCK_Rotatable_Bonds:                   7
##########                         Heavy_Atoms:                  28
##########                    Molecular_Weight:               415.9
##########                DOCK_Rotatable_Bonds:                   7
##########                       Formal_Charge:          -0.0100002
##########                     HBond_Acceptors:                   8
##########                        HBond_Donors:                   2
##########                         Heavy_Atoms:                  28
##########                          Grid_Score:          -31.636562
##########                     Grid_vdw_energy:          -30.266537
##########                      Grid_es_energy:           -1.370025
##########           Internal_energy_repulsive:            9.830002

@<TRIPOS>MOLECULE
ZINC000301324012
 46 48 1 0 0
SMALL
USER_CHARGES


@<TRIPOS>ATOM
      1 C1         -7.1734    3.1792   58.6954 C.3     1  ZINC000301324012   -0.1600
      2 C2         -7.5102    1.9311   57.8770 C.3     1  ZINC000301324012    0.2000
      3 H3         -6.7219    1.1891   58.0049 H       1  ZINC000301324012    0.1100
      4 N4         -8.7844    1.3740   58.3378 N.am    1  ZINC000301324012   -0.7100
      5 C5         -8.7953    0.3736   59.2408 C.2     1  ZINC000301324012    0.5500
      6 O6         -7.7480   -0.0655   59.6741 O.2     1  ZINC000301324012   -0.5300
      7 C7        -10.0813   -0.1897   59.7044 C.ar    1  ZINC000301324012   -0.0700
      8 C8        -10.1070   -1.1013   60.7610 C.ar    1  ZINC000301324012   -0.1100
      9 C9        -11.3103   -1.6227   61.1890 C.ar    1  ZINC000301324012   -0.0200
     10 C10       -12.4900   -1.2442   60.5731 C.ar    1  ZINC000301324012   -0.6600
     11 S11       -14.0226   -1.9153   61.1258 S.o2    1  ZINC000301324012    2.6900
     12 O12       -13.8150   -2.3388   62.4663 O.2     1  ZINC000301324012   -0.9400
     13 O13       -15.0271   -0.9823   60.7522 O.2     1  ZINC000301324012   -0.9400
     14 N14       -14.3051   -3.2861   60.2408 N.am    1  ZINC000301324012   -1.0500
     15 C15       -14.4136   -3.2097   58.8496 C.ar    1  ZINC000301324012    0.1600
     16 C16       -13.2846   -3.3550   58.0546 C.ar    1  ZINC000301324012   -0.1600
     17 C17       -13.3951   -3.2789   56.6796 C.ar    1  ZINC000301324012   -0.0800
     18 C18       -14.6281   -3.0579   56.0944 C.ar    1  ZINC000301324012   -0.1200
     19 C19       -15.7554   -2.9127   56.8826 C.ar    1  ZINC000301324012   -0.0900
     20 C20       -15.6531   -2.9937   58.2582 C.ar    1  ZINC000301324012   -0.0600
     21 Cl21      -17.0682   -2.8113   59.2472 Cl      1  ZINC000301324012   -0.0600
     22 C22       -12.4716   -0.3405   59.5255 C.ar    1  ZINC000301324012   -0.0200
     23 C23       -11.2756    0.1924   59.0912 C.ar    1  ZINC000301324012   -0.0800
     24 C24        -7.6208    2.3004   56.4202 C.ar    1  ZINC000301324012    0.1200
     25 C25        -6.4950    2.2664   55.6197 C.ar    1  ZINC000301324012   -0.1600
     26 C26        -6.6076    2.6077   54.2803 C.ar    1  ZINC000301324012   -0.0700
     27 C27        -7.8541    2.9718   53.7949 C.ar    1  ZINC000301324012   -0.1700
     28 C28        -8.9354    2.9825   54.6557 C.ar    1  ZINC000301324012    0.1100
     29 N29        -8.7921    2.6470   55.9229 N.ar    1  ZINC000301324012   -0.4900
     30 H30        -6.2254    3.5936   58.3527 H       1  ZINC000301324012    0.0700
     31 H31        -7.9617    3.9210   58.5676 H       1  ZINC000301324012    0.0600
     32 H32        -7.0934    2.9120   59.7492 H       1  ZINC000301324012    0.0700
     33 H33        -9.6202    1.7252   57.9929 H       1  ZINC000301324012    0.4100
     34 H34        -9.1866   -1.3981   61.2421 H       1  ZINC000301324012    0.1400
     35 H35       -11.3315   -2.3282   62.0065 H       1  ZINC000301324012    0.1500
     36 H36       -14.3955   -4.1421   60.6881 H       1  ZINC000301324012    0.4300
     37 H37       -12.3209   -3.5270   58.5107 H       1  ZINC000301324012    0.1700
     38 H38       -12.5171   -3.3919   56.0609 H       1  ZINC000301324012    0.1400
     39 H39       -14.7112   -2.9983   55.0192 H       1  ZINC000301324012    0.1400
     40 H40       -16.7169   -2.7401   56.4223 H       1  ZINC000301324012    0.1400
     41 H41       -13.3960   -0.0488   59.0493 H       1  ZINC000301324012    0.1500
     42 H42       -11.2626    0.8980   58.2736 H       1  ZINC000301324012    0.1500
     43 H43        -5.5393    1.9782   56.0320 H       1  ZINC000301324012    0.1400
     44 H44        -5.7448    2.5906   53.6310 H       1  ZINC000301324012    0.1400
     45 H45        -7.9785    3.2440   52.7571 H       1  ZINC000301324012    0.1400
     46 H46        -9.9097    3.2653   54.2854 H       1  ZINC000301324012    0.1600
@<TRIPOS>BOND
     1     1     2    1
     2     1    30    1
     3     1    31    1
     4     1    32    1
     5     2     3    1
     6     2     4    1
     7     2    24    1
     8     4     5   am
     9     4    33    1
    10     5     6    2
    11     5     7    1
    12     7    23   ar
    13     7     8   ar
    14     8     9   ar
    15     8    34    1
    16     9    10   ar
    17     9    35    1
    18    10    11    1
    19    10    22   ar
    20    11    12    2
    21    11    13    2
    22    11    14   am
    23    14    15    1
    24    14    36    1
    25    15    20   ar
    26    15    16   ar
    27    16    17   ar
    28    16    37    1
    29    17    18   ar
    30    17    38    1
    31    18    19   ar
    32    18    39    1
    33    19    20   ar
    34    19    40    1
    35    20    21    1
    36    22    23   ar
    37    22    41    1
    38    23    42    1
    39    24    29   ar
    40    24    25   ar
    41    25    26   ar
    42    25    43    1
    43    26    27   ar
    44    26    44    1
    45    27    28   ar
    46    27    45    1
    47    28    29   ar
    48    28    46    1
@<TRIPOS>SUBSTRUCTURE
     1 ZINC000301324012        1 TEMP              0 ****  ****    0 ROOT


##########                                Name:    ZINC000859608860
##########                DOCK_Rotatable_Bonds:                   8
##########                         Heavy_Atoms:                  24
##########                    Molecular_Weight:             394.268
##########                DOCK_Rotatable_Bonds:                   8
##########                       Formal_Charge:          -0.0200003
##########                     HBond_Acceptors:                   6
##########                        HBond_Donors:                   1
##########                         Heavy_Atoms:                  24
##########                          Grid_Score:          -31.629921
##########                     Grid_vdw_energy:          -31.316225
##########                      Grid_es_energy:           -0.313695
##########           Internal_energy_repulsive:            8.420529

@<TRIPOS>MOLECULE
ZINC000859608860
 44 45 1 0 0
SMALL
USER_CHARGES


@<TRIPOS>ATOM
      1 C1         -8.9569    1.7087   63.5843 C.3     1  ZINC000859608860   -0.1400
      2 C2         -9.6171    0.6345   62.7176 C.3     1  ZINC000859608860   -0.0800
      3 C3         -9.4368    0.9892   61.2403 C.3     1  ZINC000859608860   -0.1400
      4 C4         -8.9650   -0.7205   63.0001 C.3     1  ZINC000859608860   -0.1400
      5 C5        -11.1096    0.5605   63.0459 C.3     1  ZINC000859608860    0.1300
      6 N6        -11.7130   -0.5631   62.3251 N.am    1  ZINC000859608860   -0.7300
      7 C7        -13.0019   -0.8903   62.5445 C.2     1  ZINC000859608860    0.5100
      8 O8        -13.6617   -0.2556   63.3398 O.2     1  ZINC000859608860   -0.5100
      9 C9        -13.6231   -2.0450   61.8017 C.3     1  ZINC000859608860    0.0500
     10 O10       -13.0260   -2.1493   60.4823 O.3     1  ZINC000859608860   -0.3100
     11 C11       -13.5436   -3.0724   59.6474 C.2     1  ZINC000859608860    0.5600
     12 O12       -14.3707   -3.8645   60.0548 O.2     1  ZINC000859608860   -0.5100
     13 C13       -13.1073   -3.1213   58.2430 C.2     1  ZINC000859608860   -0.0400
     14 C14       -12.3852   -2.1648   57.5891 C.2     1  ZINC000859608860    0.0500
     15 N15       -12.2028   -2.6118   56.3169 N.pl3   1  ZINC000859608860   -0.4100
     16 C16       -11.5125   -1.9442   55.2950 C.ar    1  ZINC000859608860    0.1400
     17 C17       -11.2201   -2.6026   54.1083 C.ar    1  ZINC000859608860   -0.1200
     18 C18       -10.5405   -1.9427   53.1031 C.ar    1  ZINC000859608860   -0.0600
     19 C19       -10.1511   -0.6266   53.2783 C.ar    1  ZINC000859608860   -0.1000
     20 Br20       -9.2207    0.2737   51.9001 Br      1  ZINC000859608860   -0.0300
     21 C21       -10.4417    0.0319   54.4598 C.ar    1  ZINC000859608860   -0.0600
     22 C22       -11.1253   -0.6220   55.4662 C.ar    1  ZINC000859608860   -0.1200
     23 C23       -12.8121   -3.8250   56.2160 C.2     1  ZINC000859608860    0.2000
     24 N24       -13.3448   -4.1287   57.3640 N.2     1  ZINC000859608860   -0.4300
     25 H25        -9.4214    2.6740   63.3831 H       1  ZINC000859608860    0.0500
     26 H26        -9.0853    1.4560   64.6367 H       1  ZINC000859608860    0.0600
     27 H27        -7.8936    1.7614   63.3504 H       1  ZINC000859608860    0.0600
     28 H28        -8.3735    1.0419   61.0064 H       1  ZINC000859608860    0.0600
     29 H29        -9.9070    0.2238   60.6228 H       1  ZINC000859608860    0.0600
     30 H30        -9.9013    1.9545   61.0390 H       1  ZINC000859608860    0.0500
     31 H31        -9.0934   -0.9732   64.0525 H       1  ZINC000859608860    0.0600
     32 H32        -9.4353   -1.4858   62.3826 H       1  ZINC000859608860    0.0600
     33 H33        -7.9017   -0.6678   62.7662 H       1  ZINC000859608860    0.0600
     34 H34       -11.2390    0.4156   64.1185 H       1  ZINC000859608860    0.0700
     35 H35       -11.5945    1.4886   62.7435 H       1  ZINC000859608860    0.0700
     36 H36       -11.1850   -1.0716   61.6899 H       1  ZINC000859608860    0.4000
     37 H37       -13.4482   -2.9685   62.3537 H       1  ZINC000859608860    0.1000
     38 H38       -14.6958   -1.8785   61.7029 H       1  ZINC000859608860    0.1000
     39 H39       -12.0279   -1.2328   58.0018 H       1  ZINC000859608860    0.2000
     40 H40       -11.5235   -3.6300   53.9713 H       1  ZINC000859608860    0.1400
     41 H41       -10.3125   -2.4547   52.1800 H       1  ZINC000859608860    0.1500
     42 H42       -10.1367    1.0592   54.5942 H       1  ZINC000859608860    0.1500
     43 H43       -11.3519   -0.1076   56.3883 H       1  ZINC000859608860    0.1500
     44 H44       -12.8447   -4.4383   55.3277 H       1  ZINC000859608860    0.2200
@<TRIPOS>BOND
     1     1     2    1
     2     1    25    1
     3     1    26    1
     4     1    27    1
     5     2     3    1
     6     2     4    1
     7     2     5    1
     8     3    28    1
     9     3    29    1
    10     3    30    1
    11     4    31    1
    12     4    32    1
    13     4    33    1
    14     5     6    1
    15     5    34    1
    16     5    35    1
    17     6     7   am
    18     6    36    1
    19     7     8    2
    20     7     9    1
    21     9    10    1
    22     9    37    1
    23     9    38    1
    24    10    11    1
    25    11    12    2
    26    11    13    1
    27    13    24    1
    28    13    14    2
    29    14    15    1
    30    14    39    1
    31    15    16    1
    32    15    23    1
    33    16    22   ar
    34    16    17   ar
    35    17    18   ar
    36    17    40    1
    37    18    19   ar
    38    18    41    1
    39    19    20    1
    40    19    21   ar
    41    21    22   ar
    42    21    42    1
    43    22    43    1
    44    23    24    2
    45    23    44    1
@<TRIPOS>SUBSTRUCTURE
     1 ZINC000859608860        1 TEMP              0 ****  ****    0 ROOT


##########                                Name:    ZINC000821214121
##########                DOCK_Rotatable_Bonds:                  10
##########                         Heavy_Atoms:                  23
##########                    Molecular_Weight:             338.434
##########                DOCK_Rotatable_Bonds:                  10
##########                       Formal_Charge:          0.00999954
##########                     HBond_Acceptors:                   9
##########                        HBond_Donors:                   3
##########                         Heavy_Atoms:                  23
##########                          Grid_Score:          -31.605007
##########                     Grid_vdw_energy:          -30.498955
##########                      Grid_es_energy:           -1.106053
##########           Internal_energy_repulsive:            9.156888

@<TRIPOS>MOLECULE
ZINC000821214121
 45 46 1 0 0
SMALL
USER_CHARGES


@<TRIPOS>ATOM
      1 C1        -11.6564   -1.8102   51.1540 C.3     1  ZINC000821214121   -0.1500
      2 C2        -12.5614   -1.0446   52.1213 C.3     1  ZINC000821214121    0.0500
      3 N3        -11.8604   -0.8500   53.3976 N.3     1  ZINC000821214121   -0.5200
      4 C4        -11.3486    0.5221   53.5132 C.3     1  ZINC000821214121    0.0600
      5 C5         -9.8414    0.4839   53.7736 C.3     1  ZINC000821214121   -0.1200
      6 C6         -9.1288    1.4038   52.7801 C.3     1  ZINC000821214121    0.0800
      7 O7         -9.2785    0.8837   51.4576 O.3     1  ZINC000821214121   -0.5700
      8 C8        -12.7308   -1.1846   54.5326 C.3     1  ZINC000821214121    0.0400
      9 C9        -11.8917   -1.3782   55.7693 C.2     1  ZINC000821214121    0.5000
     10 O10       -11.0399   -2.2416   55.7952 O.2     1  ZINC000821214121   -0.4800
     11 N11       -12.0873   -0.5922   56.8464 N.am    1  ZINC000821214121   -0.6300
     12 C12       -11.3101   -0.7703   57.9895 C.2     1  ZINC000821214121    0.0800
     13 C13       -11.6075   -1.6094   59.0218 C.2     1  ZINC000821214121   -0.1000
     14 C14       -12.8257   -2.4539   59.0500 C.2     1  ZINC000821214121    0.2900
     15 N15       -12.9646   -3.6453   58.4973 N.2     1  ZINC000821214121   -0.3300
     16 N16       -14.2783   -4.0516   58.7838 N.pl3   1  ZINC000821214121   -0.2900
     17 N17       -14.8273   -3.1077   59.4691 N.2     1  ZINC000821214121    0.0200
     18 N18       -13.9851   -2.1524   59.6450 N.2     1  ZINC000821214121   -0.2900
     19 C19       -10.6642   -1.6031   60.0491 C.2     1  ZINC000821214121   -0.0500
     20 C20       -10.8042   -2.4594   61.2813 C.3     1  ZINC000821214121   -0.1000
     21 C21        -9.6328   -0.7867   59.8613 C.2     1  ZINC000821214121   -0.2400
     22 C22        -8.4896   -0.6065   60.8265 C.3     1  ZINC000821214121   -0.0800
     23 S23        -9.7890    0.0470   58.3219 S.3     1  ZINC000821214121    0.2600
     24 H24       -10.7034   -1.2897   51.0590 H       1  ZINC000821214121    0.0700
     25 H25       -11.4844   -2.8163   51.5365 H       1  ZINC000821214121    0.0500
     26 H26       -12.1367   -1.8699   50.1773 H       1  ZINC000821214121    0.0600
     27 H27       -12.8126   -0.0743   51.6931 H       1  ZINC000821214121    0.0900
     28 H28       -13.4751   -1.6140   52.2918 H       1  ZINC000821214121    0.0400
     29 H29       -11.5437    1.0619   52.5866 H       1  ZINC000821214121    0.0400
     30 H30       -11.8474    1.0274   54.3402 H       1  ZINC000821214121    0.0800
     31 H31        -9.6396    0.8212   54.7902 H       1  ZINC000821214121    0.0800
     32 H32        -9.4771   -0.5359   53.6501 H       1  ZINC000821214121    0.0700
     33 H33        -9.5661    2.4009   52.8302 H       1  ZINC000821214121    0.0400
     34 H34        -8.0695    1.4586   53.0313 H       1  ZINC000821214121    0.0500
     35 H35        -8.8856    0.0091   51.3320 H       1  ZINC000821214121    0.3800
     36 H36       -13.4400   -0.3735   54.6981 H       1  ZINC000821214121    0.0700
     37 H37       -13.2747   -2.1038   54.3149 H       1  ZINC000821214121    0.1200
     38 H38       -12.7692    0.0974   56.8262 H       1  ZINC000821214121    0.4200
     39 H39       -14.6944   -4.8859   58.5159 H       1  ZINC000821214121    0.4700
     40 H40       -10.3236   -3.4227   61.1107 H       1  ZINC000821214121    0.0700
     41 H41       -10.3291   -1.9609   62.1261 H       1  ZINC000821214121    0.0700
     42 H42       -11.8611   -2.6139   61.4981 H       1  ZINC000821214121    0.0900
     43 H43        -7.6999   -1.3202   60.5918 H       1  ZINC000821214121    0.0700
     44 H44        -8.0994    0.4078   60.7424 H       1  ZINC000821214121    0.0700
     45 H45        -8.8427   -0.7767   61.8436 H       1  ZINC000821214121    0.0800
@<TRIPOS>BOND
     1     1     2    1
     2     1    24    1
     3     1    25    1
     4     1    26    1
     5     2     3    1
     6     2    27    1
     7     2    28    1
     8     3     4    1
     9     3     8    1
    10     4     5    1
    11     4    29    1
    12     4    30    1
    13     5     6    1
    14     5    31    1
    15     5    32    1
    16     6     7    1
    17     6    33    1
    18     6    34    1
    19     7    35    1
    20     8     9    1
    21     8    36    1
    22     8    37    1
    23     9    10    2
    24     9    11   am
    25    11    12    1
    26    11    38    1
    27    12    23    1
    28    12    13    2
    29    13    14    1
    30    13    19    1
    31    14    18    1
    32    14    15    2
    33    15    16    1
    34    16    17    1
    35    16    39    1
    36    17    18    2
    37    19    20    1
    38    19    21    2
    39    20    40    1
    40    20    41    1
    41    20    42    1
    42    21    22    1
    43    21    23    1
    44    22    43    1
    45    22    44    1
    46    22    45    1
@<TRIPOS>SUBSTRUCTURE
     1 ZINC000821214121        1 TEMP              0 ****  ****    0 ROOT


##########                                Name:    ZINC000583220082
##########                DOCK_Rotatable_Bonds:                   9
##########                         Heavy_Atoms:                  29
##########                    Molecular_Weight:             417.492
##########                DOCK_Rotatable_Bonds:                   9
##########                       Formal_Charge:          -0.0400006
##########                     HBond_Acceptors:                  11
##########                        HBond_Donors:                   3
##########                         Heavy_Atoms:                  29
##########                          Grid_Score:          -31.600298
##########                     Grid_vdw_energy:          -30.443382
##########                      Grid_es_energy:           -1.156916
##########           Internal_energy_repulsive:           16.371075

@<TRIPOS>MOLECULE
ZINC000583220082
 52 54 1 0 0
SMALL
USER_CHARGES


@<TRIPOS>ATOM
      1 C1         -0.2759    0.9775   58.3992 C.3     1  ZINC000583220082    0.0800
      2 N2          0.6791    1.9182   58.9902 N.am    1  ZINC000583220082   -0.6300
      3 C3          1.8623    1.4162   59.6932 C.3     1  ZINC000583220082    0.0800
      4 C4          0.4692    3.2455   58.8869 C.2     1  ZINC000583220082    0.5100
      5 O5          1.2607    4.0244   59.3747 O.2     1  ZINC000583220082   -0.5300
      6 C6         -0.7487    3.7619   58.1652 C.3     1  ZINC000583220082   -0.1000
      7 C7         -0.4767    3.7987   56.6834 C.ar    1  ZINC000583220082   -0.0800
      8 C8         -1.4129    3.2974   55.7976 C.ar    1  ZINC000583220082   -0.0800
      9 C9         -1.1669    3.3295   54.4390 C.ar    1  ZINC000583220082   -0.1400
     10 C10         0.0224    3.8669   53.9627 C.ar    1  ZINC000583220082    0.1400
     11 N11         0.2744    3.9014   52.5887 N.am    1  ZINC000583220082   -0.6400
     12 C12        -0.3532    4.8057   51.8110 C.2     1  ZINC000583220082    0.5100
     13 O13        -1.1372    5.5902   52.3041 O.2     1  ZINC000583220082   -0.4900
     14 C14        -0.0838    4.8426   50.3424 C.2     1  ZINC000583220082    0.5100
     15 O15         0.8636    5.4690   49.9147 O.2     1  ZINC000583220082   -0.5100
     16 N16        -0.8928    4.1801   49.4920 N.am    1  ZINC000583220082   -0.5800
     17 C17        -0.6419    4.1981   48.0429 C.3     1  ZINC000583220082    0.0600
     18 C18        -0.6396    2.7537   47.5313 C.3     1  ZINC000583220082    0.0300
     19 N19        -1.8863    2.0916   47.9376 N.3     1  ZINC000583220082   -0.4300
     20 C20        -1.9944    0.8405   47.3589 C.2     1  ZINC000583220082    0.2900
     21 N21        -1.6374   -0.3151   47.8786 N.2     1  ZINC000583220082   -0.5700
     22 C22        -1.8369   -1.3855   47.1378 C.2     1  ZINC000583220082    0.5400
     23 N23        -1.4931   -2.6560   47.5979 N.pl3   1  ZINC000583220082   -0.8200
     24 N24        -2.3685   -1.2150   45.9567 N.2     1  ZINC000583220082   -0.5500
     25 S25        -2.6322    0.4568   45.8054 S.3     1  ZINC000583220082    0.2000
     26 C26        -1.9919    2.0059   49.4003 C.3     1  ZINC000583220082    0.0500
     27 C27        -2.0462    3.4147   49.9892 C.3     1  ZINC000583220082    0.1100
     28 C28         0.9605    4.3700   54.8554 C.ar    1  ZINC000583220082   -0.1200
     29 C29         0.7059    4.3390   56.2123 C.ar    1  ZINC000583220082   -0.0800
     30 H30        -1.0425    0.7288   59.1332 H       1  ZINC000583220082    0.0500
     31 H31        -0.7430    1.4339   57.5265 H       1  ZINC000583220082    0.0800
     32 H32         0.2471    0.0697   58.0983 H       1  ZINC000583220082    0.0700
     33 H33         1.8613    0.3264   59.6736 H       1  ZINC000583220082    0.0800
     34 H34         2.7616    1.7876   59.2020 H       1  ZINC000583220082    0.0600
     35 H35         1.8442    1.7611   60.7270 H       1  ZINC000583220082    0.0600
     36 H36        -1.5946    3.1036   58.3631 H       1  ZINC000583220082    0.1000
     37 H37        -0.9806    4.7671   58.5171 H       1  ZINC000583220082    0.1000
     38 H38        -2.3373    2.8799   56.1686 H       1  ZINC000583220082    0.1300
     39 H39        -1.8981    2.9373   53.7478 H       1  ZINC000583220082    0.1300
     40 H40         0.9010    3.2745   52.1946 H       1  ZINC000583220082    0.4200
     41 H41        -1.4285    4.7626   47.5421 H       1  ZINC000583220082    0.0900
     42 H42         0.3260    4.6584   47.8446 H       1  ZINC000583220082    0.1700
     43 H43        -0.5652    2.7531   46.4438 H       1  ZINC000583220082    0.1100
     44 H44         0.2108    2.2191   47.9546 H       1  ZINC000583220082    0.0700
     45 H45        -1.5110   -3.4127   46.9914 H       1  ZINC000583220082    0.4200
     46 H46        -1.2358   -2.7830   48.5245 H       1  ZINC000583220082    0.4200
     47 H47        -2.8984    1.4632   49.6684 H       1  ZINC000583220082    0.1100
     48 H48        -1.1227    1.4819   49.7977 H       1  ZINC000583220082    0.0600
     49 H49        -2.0090    3.3586   51.0770 H       1  ZINC000583220082    0.1100
     50 H50        -2.9669    3.9071   49.6763 H       1  ZINC000583220082    0.0900
     51 H51         1.8861    4.7884   54.4884 H       1  ZINC000583220082    0.1400
     52 H52         1.4346    4.7300   56.9069 H       1  ZINC000583220082    0.1300
@<TRIPOS>BOND
     1     1     2    1
     2     1    30    1
     3     1    31    1
     4     1    32    1
     5     2     3    1
     6     2     4   am
     7     3    33    1
     8     3    34    1
     9     3    35    1
    10     4     5    2
    11     4     6    1
    12     6     7    1
    13     6    36    1
    14     6    37    1
    15     7    29   ar
    16     7     8   ar
    17     8     9   ar
    18     8    38    1
    19     9    10   ar
    20     9    39    1
    21    10    11    1
    22    10    28   ar
    23    11    12   am
    24    11    40    1
    25    12    13    2
    26    12    14    1
    27    14    15    2
    28    14    16   am
    29    16    27    1
    30    16    17    1
    31    17    18    1
    32    17    41    1
    33    17    42    1
    34    18    19    1
    35    18    43    1
    36    18    44    1
    37    19    20    1
    38    19    26    1
    39    20    25    1
    40    20    21    2
    41    21    22    1
    42    22    23    1
    43    22    24    2
    44    23    45    1
    45    23    46    1
    46    24    25    1
    47    26    27    1
    48    26    47    1
    49    26    48    1
    50    27    49    1
    51    27    50    1
    52    28    29   ar
    53    28    51    1
    54    29    52    1
@<TRIPOS>SUBSTRUCTURE
     1 ZINC000583220082        1 TEMP              0 ****  ****    0 ROOT


##########                                Name:    ZINC000065993627
##########                DOCK_Rotatable_Bonds:                   7
##########                         Heavy_Atoms:                  28
##########                    Molecular_Weight:             382.462
##########                DOCK_Rotatable_Bonds:                   7
##########                       Formal_Charge:          -0.0200002
##########                     HBond_Acceptors:                   7
##########                        HBond_Donors:                   2
##########                         Heavy_Atoms:                  28
##########                          Grid_Score:          -31.588703
##########                     Grid_vdw_energy:          -31.753056
##########                      Grid_es_energy:            0.164352
##########           Internal_energy_repulsive:           14.461023

@<TRIPOS>MOLECULE
ZINC000065993627
 54 56 1 0 0
SMALL
USER_CHARGES


@<TRIPOS>ATOM
      1 C1         -8.6010   -0.8061   59.9025 C.3     1  ZINC000065993627   -0.1200
      2 C2         -9.3547   -0.3760   61.1346 C.ar    1  ZINC000065993627   -0.0700
      3 C3         -8.8956    0.6851   61.8891 C.ar    1  ZINC000065993627   -0.1800
      4 C4         -9.5903    1.0816   63.0247 C.ar    1  ZINC000065993627    0.2000
      5 N5         -9.1255    2.1572   63.7893 N.pl3   1  ZINC000065993627   -0.6400
      6 C6         -8.7328    1.9481   65.1851 C.3     1  ZINC000065993627    0.1000
      7 C7         -9.0313    3.4925   63.1940 C.3     1  ZINC000065993627    0.0900
      8 C8        -10.7463    0.4106   63.4007 C.ar    1  ZINC000065993627   -0.1800
      9 C9        -11.2051   -0.6508   62.6457 C.ar    1  ZINC000065993627   -0.0800
     10 C10       -10.5138   -1.0432   61.5077 C.ar    1  ZINC000065993627    0.1100
     11 N11       -10.9800   -2.1206   60.7411 N.am    1  ZINC000065993627   -0.6800
     12 C12       -11.8155   -1.8999   59.7068 C.2     1  ZINC000065993627    0.7000
     13 O13       -12.1649   -0.7666   59.4385 O.2     1  ZINC000065993627   -0.5700
     14 N14       -12.2636   -2.9356   58.9698 N.am    1  ZINC000065993627   -0.7400
     15 C15       -13.1732   -2.6960   57.8467 C.3     1  ZINC000065993627    0.2100
     16 H16       -13.9374   -1.9782   58.1446 H       1  ZINC000065993627    0.1000
     17 C17       -13.8401   -4.0119   57.4408 C.3     1  ZINC000065993627   -0.1600
     18 C18       -12.3954   -2.1460   56.6789 C.ar    1  ZINC000065993627   -0.1200
     19 C19       -12.5020   -0.8076   56.3479 C.ar    1  ZINC000065993627   -0.0800
     20 C20       -11.7906   -0.3005   55.2781 C.ar    1  ZINC000065993627   -0.1500
     21 C21       -10.9676   -1.1362   54.5348 C.ar    1  ZINC000065993627    0.1800
     22 N22       -10.2451   -0.6254   53.4505 N.am    1  ZINC000065993627   -0.5700
     23 C23        -9.5022    0.6440   53.4394 C.3     1  ZINC000065993627    0.0600
     24 C24        -8.9075    0.7088   52.0194 C.3     1  ZINC000065993627    0.0400
     25 O25        -9.3728   -0.5179   51.3857 O.3     1  ZINC000065993627   -0.3200
     26 C26       -10.1126   -1.2159   52.2548 C.2     1  ZINC000065993627    0.6400
     27 O27       -10.6251   -2.2833   51.9819 O.2     1  ZINC000065993627   -0.5000
     28 C28       -10.8627   -2.4798   54.8697 C.ar    1  ZINC000065993627   -0.1500
     29 C29       -11.5725   -2.9796   55.9441 C.ar    1  ZINC000065993627   -0.0800
     30 H30        -8.9766   -0.2595   59.0375 H       1  ZINC000065993627    0.0700
     31 H31        -7.5398   -0.5946   60.0333 H       1  ZINC000065993627    0.0700
     32 H32        -8.7417   -1.8756   59.7455 H       1  ZINC000065993627    0.0600
     33 H33        -7.9963    1.2066   61.5966 H       1  ZINC000065993627    0.1200
     34 H34        -7.6738    1.6944   65.2305 H       1  ZINC000065993627    0.0500
     35 H35        -8.9125    2.8606   65.7537 H       1  ZINC000065993627    0.0700
     36 H36        -9.3201    1.1339   65.6097 H       1  ZINC000065993627    0.0700
     37 H37        -9.4468    3.4713   62.1865 H       1  ZINC000065993627    0.0800
     38 H38        -9.5910    4.2021   63.8031 H       1  ZINC000065993627    0.0500
     39 H39        -7.9857    3.7975   63.1494 H       1  ZINC000065993627    0.0500
     40 H40       -11.2864    0.7184   64.2839 H       1  ZINC000065993627    0.1300
     41 H41       -12.1042   -1.1728   62.9382 H       1  ZINC000065993627    0.1500
     42 H42       -10.7012   -3.0246   60.9550 H       1  ZINC000065993627    0.4000
     43 H43       -11.9840   -3.8395   59.1831 H       1  ZINC000065993627    0.4000
     44 H44       -14.4026   -4.4097   58.2854 H       1  ZINC000065993627    0.0700
     45 H45       -14.5168   -3.8337   56.6051 H       1  ZINC000065993627    0.0700
     46 H46       -13.0759   -4.7298   57.1428 H       1  ZINC000065993627    0.0600
     47 H47       -13.1426   -0.1582   56.9262 H       1  ZINC000065993627    0.1300
     48 H48       -11.8745    0.7447   55.0199 H       1  ZINC000065993627    0.1600
     49 H49       -10.1759    1.4835   53.6110 H       1  ZINC000065993627    0.1000
     50 H50        -8.7087    0.6297   54.1865 H       1  ZINC000065993627    0.1000
     51 H51        -9.2853    1.5813   51.4863 H       1  ZINC000065993627    0.1100
     52 H52        -7.8184    0.7278   52.0617 H       1  ZINC000065993627    0.1100
     53 H53       -10.2238   -3.1323   54.2933 H       1  ZINC000065993627    0.1300
     54 H54       -11.4910   -4.0243   56.2053 H       1  ZINC000065993627    0.1300
@<TRIPOS>BOND
     1     1     2    1
     2     1    30    1
     3     1    31    1
     4     1    32    1
     5     2    10   ar
     6     2     3   ar
     7     3     4   ar
     8     3    33    1
     9     4     5    1
    10     4     8   ar
    11     5     6    1
    12     5     7    1
    13     6    34    1
    14     6    35    1
    15     6    36    1
    16     7    37    1
    17     7    38    1
    18     7    39    1
    19     8     9   ar
    20     8    40    1
    21     9    10   ar
    22     9    41    1
    23    10    11    1
    24    11    12   am
    25    11    42    1
    26    12    13    2
    27    12    14   am
    28    14    15    1
    29    14    43    1
    30    15    16    1
    31    15    17    1
    32    15    18    1
    33    17    44    1
    34    17    45    1
    35    17    46    1
    36    18    29   ar
    37    18    19   ar
    38    19    20   ar
    39    19    47    1
    40    20    21   ar
    41    20    48    1
    42    21    22    1
    43    21    28   ar
    44    22    26   am
    45    22    23    1
    46    23    24    1
    47    23    49    1
    48    23    50    1
    49    24    25    1
    50    24    51    1
    51    24    52    1
    52    25    26    1
    53    26    27    2
    54    28    29   ar
    55    28    53    1
    56    29    54    1
@<TRIPOS>SUBSTRUCTURE
     1 ZINC000065993627        1 TEMP              0 ****  ****    0 ROOT


##########                                Name:    ZINC000672622940
##########                DOCK_Rotatable_Bonds:                   7
##########                         Heavy_Atoms:                  30
##########                    Molecular_Weight:             416.523
##########                DOCK_Rotatable_Bonds:                   7
##########                       Formal_Charge:          -0.0100002
##########                     HBond_Acceptors:                   9
##########                        HBond_Donors:                   1
##########                         Heavy_Atoms:                  30
##########                          Grid_Score:          -31.586941
##########                     Grid_vdw_energy:          -30.923447
##########                      Grid_es_energy:           -0.663495
##########           Internal_energy_repulsive:           23.690306

@<TRIPOS>MOLECULE
ZINC000672622940
 62 65 1 0 0
SMALL
USER_CHARGES


@<TRIPOS>ATOM
      1 C1         -9.3682    1.2800   65.3544 C.3     1  ZINC000672622940    0.0800
      2 N2         -8.7449    0.6792   64.1726 N.am    1  ZINC000672622940   -0.6200
      3 C3         -7.3177    0.3482   64.1855 C.3     1  ZINC000672622940    0.0700
      4 C4         -9.4844    0.4309   63.0735 C.2     1  ZINC000672622940    0.5200
      5 O5         -8.9687   -0.0679   62.0957 O.2     1  ZINC000672622940   -0.5300
      6 C6        -10.9519    0.7730   63.0598 C.3     1  ZINC000672622940   -0.1000
      7 H7        -11.4154    0.4228   63.9821 H       1  ZINC000672622940    0.1000
      8 C8        -11.1211    2.2895   62.9479 C.3     1  ZINC000672622940   -0.1300
      9 C9        -12.6111    2.6369   62.9339 C.3     1  ZINC000672622940   -0.1100
     10 C10       -13.2814    1.9593   61.7371 C.3     1  ZINC000672622940   -0.1300
     11 C11       -13.1123    0.4427   61.8490 C.3     1  ZINC000672622940    0.1400
     12 H12       -13.5757    0.0926   62.7713 H       1  ZINC000672622940    0.1000
     13 N13       -13.7543   -0.2061   60.7030 N.am    1  ZINC000672622940   -0.6900
     14 C14       -14.1348   -1.4964   60.7852 C.2     1  ZINC000672622940    0.5100
     15 O15       -13.9470   -2.1203   61.8090 O.2     1  ZINC000672622940   -0.5100
     16 C16       -14.7880   -2.1588   59.6156 C.2     1  ZINC000672622940    0.5100
     17 O17       -15.9915   -2.0928   59.4750 O.2     1  ZINC000672622940   -0.5200
     18 N18       -14.0403   -2.8294   58.7168 N.am    1  ZINC000672622940   -0.5800
     19 C19       -14.6673   -3.4805   57.5585 C.3     1  ZINC000672622940    0.0700
     20 C20       -13.9743   -2.9912   56.2829 C.3     1  ZINC000672622940   -0.1200
     21 C21       -12.4678   -3.2332   56.4007 C.3     1  ZINC000672622940    0.0000
     22 C22       -11.7865   -2.7844   55.1336 C.2     1  ZINC000672622940    0.2000
     23 N23       -11.2317   -3.5551   54.2385 N.2     1  ZINC000672622940   -0.2800
     24 N24       -10.7483   -2.8363   53.2884 N.2     1  ZINC000672622940   -0.2800
     25 C25       -10.9743   -1.5731   53.5349 C.2     1  ZINC000672622940    0.1500
     26 C26       -10.7636   -0.1813   52.9791 C.3     1  ZINC000672622940   -0.0400
     27 C27       -11.7563    0.6996   53.7715 C.3     1  ZINC000672622940   -0.1300
     28 C28       -11.9301   -0.1126   55.0734 C.3     1  ZINC000672622940    0.1000
     29 N29       -11.6413   -1.5048   54.7086 N.pl3   1  ZINC000672622940   -0.4900
     30 C30       -11.9131   -2.4402   57.5863 C.3     1  ZINC000672622940   -0.1200
     31 C31       -12.5821   -2.9180   58.8733 C.3     1  ZINC000672622940    0.1100
     32 C32       -11.6224    0.0954   61.8631 C.3     1  ZINC000672622940   -0.1100
     33 H33        -9.3022    2.3659   65.2876 H       1  ZINC000672622940    0.0600
     34 H34       -10.4154    0.9820   65.4041 H       1  ZINC000672622940    0.0800
     35 H35        -8.8505    0.9391   66.2511 H       1  ZINC000672622940    0.0700
     36 H36        -7.1844   -0.6708   64.5488 H       1  ZINC000672622940    0.0600
     37 H37        -6.9169    0.4292   63.1751 H       1  ZINC000672622940    0.0800
     38 H38        -6.7903    1.0400   64.8423 H       1  ZINC000672622940    0.0700
     39 H39       -10.6435    2.7723   63.8005 H       1  ZINC000672622940    0.0800
     40 H40       -10.6577    2.6397   62.0255 H       1  ZINC000672622940    0.0700
     41 H41       -13.0745    2.2867   63.8562 H       1  ZINC000672622940    0.0700
     42 H42       -12.7315    3.7172   62.8541 H       1  ZINC000672622940    0.0700
     43 H43       -14.3430    2.2067   61.7271 H       1  ZINC000672622940    0.0700
     44 H44       -12.8180    2.3094   60.8147 H       1  ZINC000672622940    0.0700
     45 H45       -13.9054    0.2929   59.8852 H       1  ZINC000672622940    0.4100
     46 H46       -14.5566   -4.5616   57.6429 H       1  ZINC000672622940    0.0700
     47 H47       -15.7253   -3.2211   57.5220 H       1  ZINC000672622940    0.1400
     48 H48       -14.3645   -3.5378   55.4244 H       1  ZINC000672622940    0.0800
     49 H49       -14.1625   -1.9256   56.1526 H       1  ZINC000672622940    0.0800
     50 H50       -12.2817   -4.2959   56.5561 H       1  ZINC000672622940    0.0900
     51 H51        -9.7391    0.1477   53.1531 H       1  ZINC000672622940    0.1000
     52 H52       -10.9974   -0.1564   51.9147 H       1  ZINC000672622940    0.1000
     53 H53       -11.3282    1.6805   53.9780 H       1  ZINC000672622940    0.1100
     54 H54       -12.7039    0.7932   53.2409 H       1  ZINC000672622940    0.0900
     55 H55       -11.2287    0.2360   55.8315 H       1  ZINC000672622940    0.1000
     56 H56       -12.9538   -0.0260   55.4378 H       1  ZINC000672622940    0.1000
     57 H57       -10.8363   -2.5944   57.6555 H       1  ZINC000672622940    0.0800
     58 H58       -12.1208   -1.3797   57.4436 H       1  ZINC000672622940    0.0800
     59 H59       -12.2638   -2.2900   59.7055 H       1  ZINC000672622940    0.1000
     60 H60       -12.3035   -3.9538   59.0672 H       1  ZINC000672622940    0.0800
     61 H61       -11.1589    0.4456   60.9406 H       1  ZINC000672622940    0.0800
     62 H62       -11.5019   -0.9850   61.9427 H       1  ZINC000672622940    0.0800
@<TRIPOS>BOND
     1     1     2    1
     2     1    33    1
     3     1    34    1
     4     1    35    1
     5     2     3    1
     6     2     4   am
     7     3    36    1
     8     3    37    1
     9     3    38    1
    10     4     5    2
    11     4     6    1
    12     6     7    1
    13     6    32    1
    14     6     8    1
    15     8     9    1
    16     8    39    1
    17     8    40    1
    18     9    10    1
    19     9    41    1
    20     9    42    1
    21    10    11    1
    22    10    43    1
    23    10    44    1
    24    11    12    1
    25    11    13    1
    26    11    32    1
    27    13    14   am
    28    13    45    1
    29    14    15    2
    30    14    16    1
    31    16    17    2
    32    16    18   am
    33    18    31    1
    34    18    19    1
    35    19    20    1
    36    19    46    1
    37    19    47    1
    38    20    21    1
    39    20    48    1
    40    20    49    1
    41    21    22    1
    42    21    30    1
    43    21    50    1
    44    22    29    1
    45    22    23    2
    46    23    24    1
    47    24    25    2
    48    25    29    1
    49    25    26    1
    50    26    27    1
    51    26    51    1
    52    26    52    1
    53    27    28    1
    54    27    53    1
    55    27    54    1
    56    28    29    1
    57    28    55    1
    58    28    56    1
    59    30    31    1
    60    30    57    1
    61    30    58    1
    62    31    59    1
    63    31    60    1
    64    32    61    1
    65    32    62    1
@<TRIPOS>SUBSTRUCTURE
     1 ZINC000672622940        1 TEMP              0 ****  ****    0 ROOT


##########                                Name:    ZINC000643274279
##########                DOCK_Rotatable_Bonds:                   6
##########                         Heavy_Atoms:                  29
##########                    Molecular_Weight:             392.454
##########                DOCK_Rotatable_Bonds:                   6
##########                       Formal_Charge:         -0.00999939
##########                     HBond_Acceptors:                   6
##########                        HBond_Donors:                   2
##########                         Heavy_Atoms:                  29
##########                          Grid_Score:          -31.582949
##########                     Grid_vdw_energy:          -29.390415
##########                      Grid_es_energy:           -2.192534
##########           Internal_energy_repulsive:           12.623323

@<TRIPOS>MOLECULE
ZINC000643274279
 53 56 1 0 0
SMALL
USER_CHARGES


@<TRIPOS>ATOM
      1 O1         -1.3497    2.9048   52.6491 O.2     1  ZINC000643274279   -0.4900
      2 C2         -2.2209    3.7499   52.6591 C.2     1  ZINC000643274279    0.5100
      3 N3         -2.6079    4.3327   51.5072 N.am    1  ZINC000643274279   -0.6400
      4 C4         -2.0020    3.9681   50.3017 C.ar    1  ZINC000643274279    0.1300
      5 C5         -1.1640    4.8643   49.6476 C.ar    1  ZINC000643274279   -0.1000
      6 C6         -0.5688    4.5165   48.4472 C.ar    1  ZINC000643274279   -0.1000
      7 C7         -0.8088    3.2770   47.8963 C.ar    1  ZINC000643274279   -0.0600
      8 C8         -0.2144    2.9178   46.5458 C.3     1  ZINC000643274279   -0.0900
      9 C9          0.8276    1.8207   46.7312 C.3     1  ZINC000643274279   -0.1200
     10 C10         0.1955    0.4378   46.6822 C.3     1  ZINC000643274279   -0.1100
     11 C11        -0.6404    0.0983   47.8904 C.3     1  ZINC000643274279   -0.1600
     12 C12        -1.8389    1.0237   47.9719 C.2     1  ZINC000643274279    0.4100
     13 O13        -2.9299    0.6763   47.5728 O.2     1  ZINC000643274279   -0.4400
     14 C14        -1.6283    2.3604   48.5546 C.ar    1  ZINC000643274279   -0.1300
     15 C15        -2.2333    2.7106   49.7632 C.ar    1  ZINC000643274279   -0.1000
     16 C16        -2.8683    4.1395   53.9475 C.2     1  ZINC000643274279    0.5200
     17 O17        -3.9852    4.6144   53.9461 O.2     1  ZINC000643274279   -0.5000
     18 N18        -2.2123    3.9637   55.1116 N.am    1  ZINC000643274279   -0.5800
     19 C19        -0.8577    3.4006   55.2579 C.3     1  ZINC000643274279    0.0900
     20 C20        -0.3362    3.9664   56.6024 C.3     1  ZINC000643274279   -0.1400
     21 C21        -1.6248    3.9539   57.4664 C.3     1  ZINC000643274279   -0.1200
     22 C22        -2.7265    4.3076   56.4453 C.3     1  ZINC000643274279    0.1800
     23 H23        -2.9524    5.3727   56.4977 H       1  ZINC000643274279    0.0900
     24 C24        -3.9693    3.5056   56.7338 C.ar    1  ZINC000643274279   -0.1000
     25 C25        -5.0661    4.1166   57.3128 C.ar    1  ZINC000643274279   -0.0900
     26 C26        -6.2066    3.3837   57.5783 C.ar    1  ZINC000643274279   -0.1400
     27 C27        -6.2509    2.0334   57.2630 C.ar    1  ZINC000643274279    0.1100
     28 O28        -7.3718    1.3103   57.5227 O.3     1  ZINC000643274279   -0.5000
     29 C29        -5.1492    1.4227   56.6816 C.ar    1  ZINC000643274279   -0.1400
     30 C30        -4.0129    2.1611   56.4137 C.ar    1  ZINC000643274279   -0.0900
     31 H31        -3.3068    5.0052   51.5149 H       1  ZINC000643274279    0.4200
     32 H32        -0.9768    5.8370   50.0780 H       1  ZINC000643274279    0.1400
     33 H33         0.0822    5.2156   47.9434 H       1  ZINC000643274279    0.1400
     34 H34        -1.0037    2.5620   45.8837 H       1  ZINC000643274279    0.0800
     35 H35         0.2577    3.7984   46.1101 H       1  ZINC000643274279    0.0800
     36 H36         1.5730    1.8999   45.9398 H       1  ZINC000643274279    0.0800
     37 H37         1.3180    1.9543   47.6955 H       1  ZINC000643274279    0.0700
     38 H38        -0.4357    0.3763   45.7956 H       1  ZINC000643274279    0.0700
     39 H39         0.9895   -0.3033   46.5905 H       1  ZINC000643274279    0.0800
     40 H40        -0.9846   -0.9330   47.8136 H       1  ZINC000643274279    0.0900
     41 H41        -0.0360    0.2095   48.7908 H       1  ZINC000643274279    0.0900
     42 H42        -2.8787    2.0102   50.2724 H       1  ZINC000643274279    0.1300
     43 H43        -0.9014    2.3121   55.2958 H       1  ZINC000643274279    0.0800
     44 H44        -0.2203    3.7271   54.4362 H       1  ZINC000643274279    0.1000
     45 H45         0.4272    3.3164   57.0300 H       1  ZINC000643274279    0.0900
     46 H46         0.0416    4.9813   56.4788 H       1  ZINC000643274279    0.0800
     47 H47        -1.7930    2.9655   57.8938 H       1  ZINC000643274279    0.0800
     48 H48        -1.5712    4.7100   58.2498 H       1  ZINC000643274279    0.0900
     49 H49        -5.0311    5.1679   57.5582 H       1  ZINC000643274279    0.1200
     50 H50        -7.0628    3.8613   58.0313 H       1  ZINC000643274279    0.1300
     51 H51        -8.0954    1.8285   57.9009 H       1  ZINC000643274279    0.3900
     52 H52        -5.1811    0.3716   56.4356 H       1  ZINC000643274279    0.1300
     53 H53        -3.1551    1.6863   55.9609 H       1  ZINC000643274279    0.1300
@<TRIPOS>BOND
     1     1     2    2
     2     2     3   am
     3     2    16    1
     4     3     4    1
     5     3    31    1
     6     4    15   ar
     7     4     5   ar
     8     5     6   ar
     9     5    32    1
    10     6     7   ar
    11     6    33    1
    12     7    14   ar
    13     7     8    1
    14     8     9    1
    15     8    34    1
    16     8    35    1
    17     9    10    1
    18     9    36    1
    19     9    37    1
    20    10    11    1
    21    10    38    1
    22    10    39    1
    23    11    12    1
    24    11    40    1
    25    11    41    1
    26    12    13    2
    27    12    14    1
    28    14    15   ar
    29    15    42    1
    30    16    17    2
    31    16    18   am
    32    18    22    1
    33    18    19    1
    34    19    20    1
    35    19    43    1
    36    19    44    1
    37    20    21    1
    38    20    45    1
    39    20    46    1
    40    21    22    1
    41    21    47    1
    42    21    48    1
    43    22    23    1
    44    22    24    1
    45    24    30   ar
    46    24    25   ar
    47    25    26   ar
    48    25    49    1
    49    26    27   ar
    50    26    50    1
    51    27    28    1
    52    27    29   ar
    53    28    51    1
    54    29    30   ar
    55    29    52    1
    56    30    53    1
@<TRIPOS>SUBSTRUCTURE
     1 ZINC000643274279        1 TEMP              0 ****  ****    0 ROOT


##########                                Name:    ZINC000460163972
##########                DOCK_Rotatable_Bonds:                   7
##########                         Heavy_Atoms:                  28
##########                    Molecular_Weight:             408.469
##########                DOCK_Rotatable_Bonds:                   7
##########                       Formal_Charge:          -0.0100001
##########                     HBond_Acceptors:                   8
##########                        HBond_Donors:                   2
##########                         Heavy_Atoms:                  28
##########                          Grid_Score:          -31.576681
##########                     Grid_vdw_energy:          -29.922226
##########                      Grid_es_energy:           -1.654455
##########           Internal_energy_repulsive:           51.896282

@<TRIPOS>MOLECULE
ZINC000460163972
 50 52 1 0 0
SMALL
USER_CHARGES


@<TRIPOS>ATOM
      1 C1          2.3372    1.5955   48.5743 C.3     1  ZINC000460163972   -0.1400
      2 C2          1.0145    2.0782   49.1114 C.ar    1  ZINC000460163972    0.0100
      3 C3          0.9539    3.2476   49.8466 C.ar    1  ZINC000460163972   -0.1300
      4 C4         -0.2570    3.6928   50.3403 C.ar    1  ZINC000460163972   -0.0600
      5 C5         -1.4140    2.9648   50.0972 C.ar    1  ZINC000460163972    0.1100
      6 N6         -2.6422    3.4133   50.5955 N.am    1  ZINC000460163972   -0.6700
      7 C7         -2.8719    3.4112   51.9235 C.2     1  ZINC000460163972    0.5200
      8 O8         -2.0139    3.0207   52.6868 O.2     1  ZINC000460163972   -0.5100
      9 C9         -4.1947    3.8942   52.4603 C.3     1  ZINC000460163972   -0.0700
     10 H10        -4.9691    3.1626   52.2300 H       1  ZINC000460163972    0.1200
     11 C11        -4.0955    4.0717   53.9767 C.3     1  ZINC000460163972   -0.1500
     12 C12        -4.5443    5.2136   51.8217 C.ar    1  ZINC000460163972   -0.0600
     13 C13        -5.8669    5.6007   51.7165 C.ar    1  ZINC000460163972   -0.0700
     14 C14        -6.1902    6.8107   51.1309 C.ar    1  ZINC000460163972   -0.1200
     15 C15        -5.1890    7.6359   50.6500 C.ar    1  ZINC000460163972    0.0700
     16 F16        -5.5040    8.8187   50.0782 F       1  ZINC000460163972   -0.1300
     17 C17        -3.8618    7.2478   50.7561 C.ar    1  ZINC000460163972    0.0700
     18 F18        -2.8825    8.0518   50.2872 F       1  ZINC000460163972   -0.1300
     19 C19        -3.5413    6.0383   51.3469 C.ar    1  ZINC000460163972   -0.1200
     20 C20        -1.3498    1.7907   49.3579 C.ar    1  ZINC000460163972    0.0000
     21 C21        -2.6033    0.9977   49.0912 C.3     1  ZINC000460163972   -0.1500
     22 C22        -0.1370    1.3535   48.8631 C.ar    1  ZINC000460163972   -0.6700
     23 S23        -0.0545   -0.1354   47.9246 S.o2    1  ZINC000460163972    2.7000
     24 O24         1.0912   -0.0219   47.0918 O.2     1  ZINC000460163972   -0.9500
     25 O25        -0.2437   -1.2011   48.8453 O.2     1  ZINC000460163972   -0.9500
     26 N26        -1.3669   -0.1514   46.9146 N.am    1  ZINC000460163972   -1.0900
     27 C27        -1.5473    0.9191   45.9310 C.3     1  ZINC000460163972    0.0800
     28 C28        -0.6315    0.9139   44.7053 C.3     1  ZINC000460163972   -0.1800
     29 C29        -2.1059    0.5321   44.5602 C.3     1  ZINC000460163972   -0.1900
     30 H30         2.4568    1.9340   47.5451 H       1  ZINC000460163972    0.1000
     31 H31         3.1458    1.9970   49.1852 H       1  ZINC000460163972    0.0800
     32 H32         2.3657    0.5063   48.6041 H       1  ZINC000460163972    0.0700
     33 H33         1.8542    3.8134   50.0354 H       1  ZINC000460163972    0.1400
     34 H34        -0.3035    4.6060   50.9151 H       1  ZINC000460163972    0.1600
     35 H35        -3.3284    3.7256   49.9852 H       1  ZINC000460163972    0.4100
     36 H36        -5.0522    4.4210   54.3649 H       1  ZINC000460163972    0.0800
     37 H37        -3.8426    3.1173   54.4385 H       1  ZINC000460163972    0.0700
     38 H38        -3.3210    4.8033   54.2070 H       1  ZINC000460163972    0.0700
     39 H39        -6.6488    4.9570   52.0916 H       1  ZINC000460163972    0.1400
     40 H40        -7.2241    7.1117   51.0487 H       1  ZINC000460163972    0.1500
     41 H41        -2.5080    5.7350   51.4304 H       1  ZINC000460163972    0.1500
     42 H42        -2.9946    1.2567   48.1074 H       1  ZINC000460163972    0.1000
     43 H43        -2.3729   -0.0672   49.1218 H       1  ZINC000460163972    0.1000
     44 H44        -3.3490    1.2301   49.8516 H       1  ZINC000460163972    0.0700
     45 H45        -2.0161   -0.8697   46.9744 H       1  ZINC000460163972    0.4200
     46 H46        -1.8383    1.8874   46.3380 H       1  ZINC000460163972    0.1300
     47 H47        -0.3198    1.8789   44.3058 H       1  ZINC000460163972    0.1100
     48 H48         0.1052    0.1140   44.6309 H       1  ZINC000460163972    0.1000
     49 H49        -2.3393   -0.5190   44.3903 H       1  ZINC000460163972    0.1000
     50 H50        -2.7644    1.2461   44.0653 H       1  ZINC000460163972    0.1000
@<TRIPOS>BOND
     1     1     2    1
     2     1    30    1
     3     1    31    1
     4     1    32    1
     5     2    22   ar
     6     2     3   ar
     7     3     4   ar
     8     3    33    1
     9     4     5   ar
    10     4    34    1
    11     5     6    1
    12     5    20   ar
    13     6     7   am
    14     6    35    1
    15     7     8    2
    16     7     9    1
    17     9    10    1
    18     9    11    1
    19     9    12    1
    20    11    36    1
    21    11    37    1
    22    11    38    1
    23    12    19   ar
    24    12    13   ar
    25    13    14   ar
    26    13    39    1
    27    14    15   ar
    28    14    40    1
    29    15    16    1
    30    15    17   ar
    31    17    18    1
    32    17    19   ar
    33    19    41    1
    34    20    21    1
    35    20    22   ar
    36    21    42    1
    37    21    43    1
    38    21    44    1
    39    22    23    1
    40    23    24    2
    41    23    25    2
    42    23    26   am
    43    26    27    1
    44    26    45    1
    45    27    29    1
    46    27    28    1
    47    27    46    1
    48    28    29    1
    49    28    47    1
    50    28    48    1
    51    29    49    1
    52    29    50    1
@<TRIPOS>SUBSTRUCTURE
     1 ZINC000460163972        1 TEMP              0 ****  ****    0 ROOT


##########                                Name:    ZINC000790205345
##########                DOCK_Rotatable_Bonds:                   7
##########                         Heavy_Atoms:                  28
##########                    Molecular_Weight:             382.459
##########                DOCK_Rotatable_Bonds:                   7
##########                       Formal_Charge:          -0.0299997
##########                     HBond_Acceptors:                   6
##########                        HBond_Donors:                   0
##########                         Heavy_Atoms:                  28
##########                          Grid_Score:          -31.558914
##########                     Grid_vdw_energy:          -31.246397
##########                      Grid_es_energy:           -0.312516
##########           Internal_energy_repulsive:           57.531311

@<TRIPOS>MOLECULE
ZINC000790205345
 54 56 1 0 0
SMALL
USER_CHARGES


@<TRIPOS>ATOM
      1 C1          2.5593    6.5280   43.0569 C.3     1  ZINC000790205345   -0.1100
      2 C2          2.0414    5.2635   43.6926 C.ar    1  ZINC000790205345   -0.1300
      3 C3          2.4536    4.0329   43.2164 C.ar    1  ZINC000790205345   -0.0800
      4 C4          1.9807    2.8722   43.7977 C.ar    1  ZINC000790205345   -0.2100
      5 C5          1.0915    2.9424   44.8600 C.ar    1  ZINC000790205345    0.1300
      6 O6          0.6252    1.8021   45.4339 O.3     1  ZINC000790205345   -0.2900
      7 C7         -0.3612    1.0666   44.7072 C.3     1  ZINC000790205345    0.0400
      8 C8         -1.5476    0.8017   45.5979 C.2     1  ZINC000790205345    0.5200
      9 O9         -2.6649    1.0830   45.2194 O.2     1  ZINC000790205345   -0.5100
     10 N10        -1.3670    0.2524   46.8153 N.am    1  ZINC000790205345   -0.6100
     11 C11        -2.5206   -0.0067   47.6805 C.3     1  ZINC000790205345    0.0700
     12 C12        -0.0172   -0.0857   47.2735 C.3     1  ZINC000790205345    0.1800
     13 H13         0.6268   -0.2579   46.4110 H       1  ZINC000790205345    0.1200
     14 C14        -0.0717   -1.3522   48.1301 C.3     1  ZINC000790205345   -0.1600
     15 C15         0.5347    1.0520   48.0933 C.ar    1  ZINC000790205345   -0.0700
     16 C16         1.8991    1.2701   48.1414 C.ar    1  ZINC000790205345   -0.1300
     17 C17         2.4096    2.3128   48.8931 C.ar    1  ZINC000790205345   -0.0900
     18 C18         1.5573    3.1398   49.5978 C.ar    1  ZINC000790205345   -0.1500
     19 C19         0.1862    2.9236   49.5512 C.ar    1  ZINC000790205345    0.1800
     20 N20        -0.6802    3.7601   50.2640 N.am    1  ZINC000790205345   -0.5700
     21 C21        -2.1456    3.6388   50.3048 C.3     1  ZINC000790205345    0.0600
     22 C22        -2.5842    4.7960   51.2228 C.3     1  ZINC000790205345    0.0400
     23 O23        -1.3333    5.4413   51.5992 O.3     1  ZINC000790205345   -0.3200
     24 C24        -0.3097    4.7988   51.0255 C.2     1  ZINC000790205345    0.6400
     25 O25         0.8494    5.1315   51.1745 O.2     1  ZINC000790205345   -0.5000
     26 C26        -0.3235    1.8790   48.7915 C.ar    1  ZINC000790205345   -0.1400
     27 C27         0.6793    4.1788   45.3362 C.ar    1  ZINC000790205345   -0.1500
     28 C28         1.1591    5.3362   44.7550 C.ar    1  ZINC000790205345   -0.0500
     29 C29         0.7123    6.6795   45.2718 C.3     1  ZINC000790205345   -0.1200
     30 H30         3.4749    6.8389   43.5600 H       1  ZINC000790205345    0.0700
     31 H31         2.7678    6.3456   42.0027 H       1  ZINC000790205345    0.0600
     32 H32         1.8096    7.3139   43.1483 H       1  ZINC000790205345    0.0700
     33 H33         3.1457    3.9788   42.3890 H       1  ZINC000790205345    0.1300
     34 H34         2.3027    1.9110   43.4251 H       1  ZINC000790205345    0.1300
     35 H35        -0.6799    1.6450   43.8400 H       1  ZINC000790205345    0.1000
     36 H36         0.0632    0.1189   44.3759 H       1  ZINC000790205345    0.0900
     37 H37        -2.9643   -0.9666   47.4166 H       1  ZINC000790205345    0.0600
     38 H38        -2.1964   -0.0300   48.7209 H       1  ZINC000790205345    0.0800
     39 H39        -3.2591    0.7838   47.5477 H       1  ZINC000790205345    0.0700
     40 H40        -0.7156   -1.1801   48.9926 H       1  ZINC000790205345    0.0600
     41 H41        -0.4708   -2.1751   47.5372 H       1  ZINC000790205345    0.0700
     42 H42         0.9327   -1.6038   48.4710 H       1  ZINC000790205345    0.0800
     43 H43         2.5677    0.6248   47.5911 H       1  ZINC000790205345    0.1300
     44 H44         3.4759    2.4802   48.9292 H       1  ZINC000790205345    0.1300
     45 H45         1.9566    3.9536   50.1849 H       1  ZINC000790205345    0.1300
     46 H46        -2.5677    3.7604   49.3072 H       1  ZINC000790205345    0.1000
     47 H47        -2.4386    2.6795   50.7313 H       1  ZINC000790205345    0.1000
     48 H48        -3.2251    5.4916   50.6811 H       1  ZINC000790205345    0.1100
     49 H49        -3.0961    4.4110   52.1048 H       1  ZINC000790205345    0.1100
     50 H50        -1.3893    1.7085   48.7530 H       1  ZINC000790205345    0.1600
     51 H51        -0.0131    4.2361   46.1630 H       1  ZINC000790205345    0.1300
     52 H52         1.3904    7.0100   46.0586 H       1  ZINC000790205345    0.0700
     53 H53         0.7206    7.4035   44.4570 H       1  ZINC000790205345    0.0700
     54 H54        -0.2975    6.5964   45.6738 H       1  ZINC000790205345    0.0700
@<TRIPOS>BOND
     1     1     2    1
     2     1    30    1
     3     1    31    1
     4     1    32    1
     5     2    28   ar
     6     2     3   ar
     7     3     4   ar
     8     3    33    1
     9     4     5   ar
    10     4    34    1
    11     5     6    1
    12     5    27   ar
    13     6     7    1
    14     7     8    1
    15     7    35    1
    16     7    36    1
    17     8     9    2
    18     8    10   am
    19    10    11    1
    20    10    12    1
    21    11    37    1
    22    11    38    1
    23    11    39    1
    24    12    13    1
    25    12    14    1
    26    12    15    1
    27    14    40    1
    28    14    41    1
    29    14    42    1
    30    15    26   ar
    31    15    16   ar
    32    16    17   ar
    33    16    43    1
    34    17    18   ar
    35    17    44    1
    36    18    19   ar
    37    18    45    1
    38    19    20    1
    39    19    26   ar
    40    20    24   am
    41    20    21    1
    42    21    22    1
    43    21    46    1
    44    21    47    1
    45    22    23    1
    46    22    48    1
    47    22    49    1
    48    23    24    1
    49    24    25    2
    50    26    50    1
    51    27    28   ar
    52    27    51    1
    53    28    29    1
    54    29    52    1
    55    29    53    1
    56    29    54    1
@<TRIPOS>SUBSTRUCTURE
     1 ZINC000790205345        1 TEMP              0 ****  ****    0 ROOT


##########                                Name:    ZINC000266467123
##########                DOCK_Rotatable_Bonds:                   9
##########                         Heavy_Atoms:                  25
##########                    Molecular_Weight:             337.421
##########                DOCK_Rotatable_Bonds:                   9
##########                       Formal_Charge:                0.02
##########                     HBond_Acceptors:                   5
##########                        HBond_Donors:                   3
##########                         Heavy_Atoms:                  25
##########                          Grid_Score:          -31.556807
##########                     Grid_vdw_energy:          -28.966391
##########                      Grid_es_energy:           -2.590415
##########           Internal_energy_repulsive:           10.716333

@<TRIPOS>MOLECULE
ZINC000266467123
 48 50 1 0 0
SMALL
USER_CHARGES


@<TRIPOS>ATOM
      1 C1         -3.1069    5.3063   51.8262 C.3     1  <0>        -0.1600
      2 C2         -3.6810    4.0790   51.1155 C.3     1  <0>         0.1500
      3 H3         -4.2849    4.4001   50.2669 H       1  <0>         0.1200
      4 N4         -4.5159    3.3198   52.0498 N.am    1  <0>        -0.7300
      5 C5         -5.7647    3.7405   52.3324 C.2     1  <0>         0.7100
      6 O6         -6.1989    4.7494   51.8110 O.2     1  <0>        -0.5900
      7 N7         -6.5321    3.0430   53.1931 N.am    1  <0>        -0.7100
      8 C8         -7.8902    3.4993   53.4990 C.3     1  <0>         0.1100
      9 H9         -8.0827    4.5569   53.3182 H       1  <0>         0.1400
     10 C10        -8.6067    2.8428   54.6808 C.3     1  <0>        -0.1900
     11 C11        -9.0381    2.5195   53.2481 C.3     1  <0>        -0.1500
     12 H12        -9.9859    2.9322   52.9026 H       1  <0>         0.1200
     13 C13        -8.6804    1.1375   52.6975 C.3     1  <0>        -0.0500
     14 C14        -9.8481    0.2037   52.8867 C.ar    1  <0>        -0.0800
     15 C15       -10.0263   -0.8634   52.0261 C.ar    1  <0>        -0.1100
     16 C16       -11.0973   -1.7198   52.1997 C.ar    1  <0>        -0.1200
     17 C17       -11.9899   -1.5097   53.2340 C.ar    1  <0>        -0.1200
     18 C18       -11.8112   -0.4432   54.0952 C.ar    1  <0>        -0.1200
     19 C19       -10.7377    0.4109   53.9243 C.ar    1  <0>        -0.1200
     20 C20        -2.5525    3.2073   50.6279 C.2     1  <0>         0.5100
     21 O21        -1.6542    2.8997   51.3824 O.2     1  <0>        -0.5100
     22 N22        -2.5415    2.7698   49.3532 N.am    1  <0>        -0.6700
     23 C23        -1.4937    1.9604   48.9004 C.ar    1  <0>         0.1400
     24 C24        -1.7083    0.6075   48.6717 C.ar    1  <0>        -0.1400
     25 C25        -0.6719   -0.1887   48.2248 C.ar    1  <0>        -0.1000
     26 C26         0.5783    0.3598   48.0055 C.ar    1  <0>        -0.1300
     27 C27         0.7953    1.7064   48.2327 C.ar    1  <0>        -0.1000
     28 C28        -0.2385    2.5094   48.6732 C.ar    1  <0>        -0.1200
     29 H29        -2.4857    5.8712   51.1312 H       1  <0>         0.0700
     30 H30        -3.9231    5.9368   52.1790 H       1  <0>         0.0800
     31 H31        -2.5029    4.9853   52.6749 H       1  <0>         0.0700
     32 H32        -4.1699    2.5142   52.4648 H       1  <0>         0.4100
     33 H33        -6.1853    2.2387   53.6100 H       1  <0>         0.4000
     34 H34        -8.0677    2.0713   55.2306 H       1  <0>         0.1000
     35 H35        -9.2709    3.4683   55.2772 H       1  <0>         0.1000
     36 H36        -8.4483    1.2184   51.6356 H       1  <0>         0.0800
     37 H37        -7.8133    0.7474   53.2303 H       1  <0>         0.0700
     38 H38        -9.3289   -1.0275   51.2180 H       1  <0>         0.1200
     39 H39       -11.2369   -2.5530   51.5268 H       1  <0>         0.1200
     40 H40       -12.8271   -2.1784   53.3692 H       1  <0>         0.1200
     41 H41       -12.5087   -0.2787   54.9031 H       1  <0>         0.1200
     42 H42       -10.5981    1.2441   54.5970 H       1  <0>         0.1200
     43 H43        -3.2599    3.0158   48.7497 H       1  <0>         0.4100
     44 H44        -2.6844    0.1784   48.8435 H       1  <0>         0.1300
     45 H45        -0.8383   -1.2409   48.0468 H       1  <0>         0.1300
     46 H46         1.3872   -0.2649   47.6564 H       1  <0>         0.1200
     47 H47         1.7731    2.1317   48.0612 H       1  <0>         0.1300
     48 H48        -0.0684    3.5611   48.8506 H       1  <0>         0.1400
@<TRIPOS>BOND
     1     1     2    1
     2     1    29    1
     3     1    30    1
     4     1    31    1
     5     2     3    1
     6     2     4    1
     7     2    20    1
     8     4     5   am
     9     4    32    1
    10     5     6    2
    11     5     7   am
    12     7     8    1
    13     7    33    1
    14     8     9    1
    15     8    11    1
    16     8    10    1
    17    10    11    1
    18    10    34    1
    19    10    35    1
    20    11    12    1
    21    11    13    1
    22    13    14    1
    23    13    36    1
    24    13    37    1
    25    14    19   ar
    26    14    15   ar
    27    15    16   ar
    28    15    38    1
    29    16    17   ar
    30    16    39    1
    31    17    18   ar
    32    17    40    1
    33    18    19   ar
    34    18    41    1
    35    19    42    1
    36    20    21    2
    37    20    22   am
    38    22    23    1
    39    22    43    1
    40    23    28   ar
    41    23    24   ar
    42    24    25   ar
    43    24    44    1
    44    25    26   ar
    45    25    45    1
    46    26    27   ar
    47    26    46    1
    48    27    28   ar
    49    27    47    1
    50    28    48    1
@<TRIPOS>SUBSTRUCTURE
     1 <0>         1 TEMP              0 ****  ****    0 ROOT


##########                                Name:    ZINC000642096826
##########                DOCK_Rotatable_Bonds:                  12
##########                         Heavy_Atoms:                  25
##########                    Molecular_Weight:             345.485
##########                DOCK_Rotatable_Bonds:                  12
##########                       Formal_Charge:          0.00999919
##########                     HBond_Acceptors:                   5
##########                        HBond_Donors:                   1
##########                         Heavy_Atoms:                  25
##########                          Grid_Score:          -31.505630
##########                     Grid_vdw_energy:          -29.010006
##########                      Grid_es_energy:           -2.495625
##########           Internal_energy_repulsive:           21.920559

@<TRIPOS>MOLECULE
ZINC000642096826
 56 57 1 0 0
SMALL
USER_CHARGES


@<TRIPOS>ATOM
      1 C1         -0.9750   -1.2451   48.1091 C.3     1  ZINC000642096826   -0.1500
      2 C2         -2.1769   -0.9308   47.2159 C.3     1  ZINC000642096826   -0.1400
      3 C3         -2.7609    0.4283   47.6064 C.3     1  ZINC000642096826    0.1200
      4 N4         -1.7310    1.4608   47.4667 N.am    1  ZINC000642096826   -0.6200
      5 C5         -1.3540    1.9439   46.1360 C.3     1  ZINC000642096826    0.1100
      6 C6         -0.0613    1.2567   45.6913 C.3     1  ZINC000642096826   -0.1400
      7 C7          0.1997    1.5672   44.2160 C.3     1  ZINC000642096826   -0.1500
      8 C8         -1.1305    1.9662   48.5623 C.2     1  ZINC000642096826    0.5200
      9 O9         -1.4415    1.5652   49.6637 O.2     1  ZINC000642096826   -0.5200
     10 C10        -0.0723    3.0296   48.4186 C.3     1  ZINC000642096826    0.0400
     11 N11         0.2835    3.5488   49.7458 N.3     1  ZINC000642096826   -0.5200
     12 C12         1.7410    3.5715   49.9289 C.3     1  ZINC000642096826    0.0100
     13 C13        -0.2949    4.8817   49.9622 C.3     1  ZINC000642096826    0.0900
     14 C14        -1.3303    4.8086   51.0548 C.ar    1  ZINC000642096826   -0.0500
     15 C15        -0.9525    4.9828   52.3744 C.ar    1  ZINC000642096826   -0.1000
     16 C16        -1.8952    4.9166   53.3795 C.ar    1  ZINC000642096826   -0.0600
     17 C17        -3.2327    4.6737   53.0626 C.ar    1  ZINC000642096826   -0.1400
     18 C18        -4.2483    4.6019   54.1345 C.2     1  ZINC000642096826    0.5600
     19 O19        -4.7135    5.6236   54.6005 O.2     1  ZINC000642096826   -0.5300
     20 N20        -4.6585    3.4035   54.5950 N.am    1  ZINC000642096826   -0.7000
     21 C21        -5.6637    3.3323   55.6585 C.3     1  ZINC000642096826    0.0800
     22 C22        -5.8108    2.0043   56.4040 C.3     1  ZINC000642096826   -0.1900
     23 C23        -5.1613    3.2034   57.0979 C.3     1  ZINC000642096826   -0.1900
     24 C24        -3.6071    4.4992   51.7294 C.ar    1  ZINC000642096826   -0.0900
     25 C25        -2.6553    4.5730   50.7335 C.ar    1  ZINC000642096826   -0.1200
     26 H26        -0.2159   -0.4733   47.9817 H       1  ZINC000642096826    0.0600
     27 H27        -1.2940   -1.2725   49.1510 H       1  ZINC000642096826    0.0600
     28 H28        -0.5590   -2.2134   47.8309 H       1  ZINC000642096826    0.0600
     29 H29        -1.8579   -0.9034   46.1740 H       1  ZINC000642096826    0.0600
     30 H30        -2.9359   -1.7026   47.3434 H       1  ZINC000642096826    0.0600
     31 H31        -3.6019    0.6633   46.9541 H       1  ZINC000642096826    0.0800
     32 H32        -3.1023    0.3933   48.6410 H       1  ZINC000642096826    0.0800
     33 H33        -2.1498    1.7147   45.4273 H       1  ZINC000642096826    0.0800
     34 H34        -1.1986    3.0222   46.1716 H       1  ZINC000642096826    0.0800
     35 H35         0.7705    1.6236   46.2924 H       1  ZINC000642096826    0.0700
     36 H36        -0.1583    0.1792   45.8242 H       1  ZINC000642096826    0.0700
     37 H37         1.1206    1.0776   43.8992 H       1  ZINC000642096826    0.0600
     38 H38        -0.6323    1.2003   43.6148 H       1  ZINC000642096826    0.0600
     39 H39         0.2967    2.6447   44.0831 H       1  ZINC000642096826    0.0600
     40 H40         0.8120    2.6008   47.9471 H       1  ZINC000642096826    0.0600
     41 H41        -0.4553    3.8421   47.8013 H       1  ZINC000642096826    0.1000
     42 H42         2.1924    4.2113   49.1707 H       1  ZINC000642096826    0.0200
     43 H43         1.9767    3.9600   50.9196 H       1  ZINC000642096826    0.0700
     44 H44         2.1351    2.5598   49.8322 H       1  ZINC000642096826    0.0900
     45 H45         0.4925    5.5766   50.2537 H       1  ZINC000642096826    0.0500
     46 H46        -0.7629    5.2285   49.0408 H       1  ZINC000642096826    0.0900
     47 H47         0.0827    5.1707   52.6182 H       1  ZINC000642096826    0.1300
     48 H48        -1.5990    5.0520   54.4092 H       1  ZINC000642096826    0.1400
     49 H49        -4.2882    2.5881   54.2223 H       1  ZINC000642096826    0.4000
     50 H50        -6.5671    3.9188   55.4914 H       1  ZINC000642096826    0.1400
     51 H51        -6.8111    1.7168   56.7272 H       1  ZINC000642096826    0.1000
     52 H52        -5.1596    1.1835   56.1031 H       1  ZINC000642096826    0.1000
     53 H53        -4.0830    3.1713   57.2536 H       1  ZINC000642096826    0.1000
     54 H54        -5.7345    3.7046   57.8778 H       1  ZINC000642096826    0.1100
     55 H55        -4.6403    4.3107   51.4777 H       1  ZINC000642096826    0.1200
     56 H56        -2.9437    4.4386   49.7014 H       1  ZINC000642096826    0.1300
@<TRIPOS>BOND
     1     1     2    1
     2     1    26    1
     3     1    27    1
     4     1    28    1
     5     2     3    1
     6     2    29    1
     7     2    30    1
     8     3     4    1
     9     3    31    1
    10     3    32    1
    11     4     5    1
    12     4     8   am
    13     5     6    1
    14     5    33    1
    15     5    34    1
    16     6     7    1
    17     6    35    1
    18     6    36    1
    19     7    37    1
    20     7    38    1
    21     7    39    1
    22     8     9    2
    23     8    10    1
    24    10    11    1
    25    10    40    1
    26    10    41    1
    27    11    12    1
    28    11    13    1
    29    12    42    1
    30    12    43    1
    31    12    44    1
    32    13    14    1
    33    13    45    1
    34    13    46    1
    35    14    25   ar
    36    14    15   ar
    37    15    16   ar
    38    15    47    1
    39    16    17   ar
    40    16    48    1
    41    17    18    1
    42    17    24   ar
    43    18    19    2
    44    18    20   am
    45    20    21    1
    46    20    49    1
    47    21    23    1
    48    21    22    1
    49    21    50    1
    50    22    23    1
    51    22    51    1
    52    22    52    1
    53    23    53    1
    54    23    54    1
    55    24    25   ar
    56    24    55    1
    57    25    56    1
@<TRIPOS>SUBSTRUCTURE
     1 ZINC000642096826        1 TEMP              0 ****  ****    0 ROOT


##########                                Name:    ZINC001492779707
##########                DOCK_Rotatable_Bonds:                   8
##########                         Heavy_Atoms:                  27
##########                    Molecular_Weight:             374.483
##########                DOCK_Rotatable_Bonds:                   8
##########                       Formal_Charge:           0.0199998
##########                     HBond_Acceptors:                   7
##########                        HBond_Donors:                   0
##########                         Heavy_Atoms:                  27
##########                          Grid_Score:          -31.499420
##########                     Grid_vdw_energy:          -31.381956
##########                      Grid_es_energy:           -0.117463
##########           Internal_energy_repulsive:           12.381694

@<TRIPOS>MOLECULE
ZINC001492779707
 57 59 1 0 0
SMALL
USER_CHARGES


@<TRIPOS>ATOM
      1 C1        -10.8100   -1.5040   52.2395 C.3     1  ZINC001492779707   -0.0700
      2 C2        -11.3927   -2.1917   53.4472 C.2     1  ZINC001492779707    0.1800
      3 N3        -11.2351   -3.4431   53.7743 N.2     1  ZINC001492779707   -0.2900
      4 N4        -11.8690   -3.6972   54.8632 N.2     1  ZINC001492779707   -0.3100
      5 C5        -12.4698   -2.6126   55.2927 C.2     1  ZINC001492779707    0.3400
      6 N6        -13.2471   -2.4986   56.4344 N.3     1  ZINC001492779707   -0.4600
      7 C7        -14.6659   -2.7278   56.1304 C.3     1  ZINC001492779707    0.0300
      8 C8        -12.7789   -3.4141   57.4834 C.3     1  ZINC001492779707    0.1100
      9 C9        -12.7556   -2.6924   58.8062 C.ar    1  ZINC001492779707   -0.0400
     10 C10       -13.7219   -2.9623   59.7573 C.ar    1  ZINC001492779707   -0.1300
     11 C11       -13.7033   -2.3018   60.9722 C.ar    1  ZINC001492779707   -0.0800
     12 C12       -12.7187   -1.3704   61.2381 C.ar    1  ZINC001492779707   -0.2100
     13 C13       -11.7477   -1.0977   60.2851 C.ar    1  ZINC001492779707    0.1300
     14 O14       -10.7775   -0.1820   60.5446 O.3     1  ZINC001492779707   -0.3100
     15 C15        -9.4235   -0.6043   60.3700 C.3     1  ZINC001492779707    0.0800
     16 C16        -8.5808    0.5751   59.8800 C.3     1  ZINC001492779707   -0.1500
     17 C17        -8.8699   -1.1071   61.7047 C.3     1  ZINC001492779707   -0.1800
     18 C18       -11.7652   -1.7656   59.0696 C.ar    1  ZINC001492779707   -0.1400
     19 N19       -12.1801   -1.6167   54.4060 N.pl3   1  ZINC001492779707   -0.4600
     20 C20       -12.6276   -0.2229   54.4639 C.3     1  ZINC001492779707    0.1200
     21 C21       -11.8366    0.5225   55.5408 C.3     1  ZINC001492779707   -0.1200
     22 C22       -10.8446    1.4783   54.8750 C.3     1  ZINC001492779707    0.0600
     23 H23       -11.3592    2.0661   54.1150 H       1  ZINC001492779707    0.0800
     24 C24       -10.2493    2.4148   55.9304 C.3     1  ZINC001492779707    0.0300
     25 O25        -9.2425    3.2288   55.3213 O.3     1  ZINC001492779707   -0.3800
     26 C26        -8.1884    2.4764   54.7132 C.3     1  ZINC001492779707    0.0200
     27 C27        -8.7836    1.5400   53.6578 C.3     1  ZINC001492779707    0.0300
     28 O28        -9.7912    0.7258   54.2656 O.3     1  ZINC001492779707   -0.3800
     29 H29        -9.8312   -1.0954   52.4911 H       1  ZINC001492779707    0.0900
     30 H30       -10.7056   -2.2230   51.4270 H       1  ZINC001492779707    0.1000
     31 H31       -11.4715   -0.6961   51.9270 H       1  ZINC001492779707    0.0800
     32 H32       -14.8091   -3.7641   55.8242 H       1  ZINC001492779707    0.0500
     33 H33       -15.2651   -2.5252   57.0181 H       1  ZINC001492779707    0.0900
     34 H34       -14.9763   -2.0642   55.3233 H       1  ZINC001492779707    0.0700
     35 H35       -13.4528   -4.2684   57.5475 H       1  ZINC001492779707    0.0700
     36 H36       -11.7744   -3.7611   57.2411 H       1  ZINC001492779707    0.0900
     37 H37       -14.4928   -3.6900   59.5512 H       1  ZINC001492779707    0.1200
     38 H38       -14.4595   -2.5142   61.7134 H       1  ZINC001492779707    0.1300
     39 H39       -12.7047   -0.8545   62.1868 H       1  ZINC001492779707    0.1300
     40 H40        -9.3856   -1.4081   59.6348 H       1  ZINC001492779707    0.0700
     41 H41        -8.6187    1.3789   60.6152 H       1  ZINC001492779707    0.0700
     42 H42        -7.5479    0.2530   59.7469 H       1  ZINC001492779707    0.0800
     43 H43        -8.9752    0.9334   58.9292 H       1  ZINC001492779707    0.0700
     44 H44        -9.4703   -1.9473   62.0536 H       1  ZINC001492779707    0.0600
     45 H45        -7.8371   -1.4293   61.5713 H       1  ZINC001492779707    0.0700
     46 H46        -8.9079   -0.3033   62.4398 H       1  ZINC001492779707    0.0700
     47 H47       -11.0106   -1.5552   58.3262 H       1  ZINC001492779707    0.1300
     48 H48       -12.4622    0.2523   53.4970 H       1  ZINC001492779707    0.1000
     49 H49       -13.6898   -0.1923   54.7068 H       1  ZINC001492779707    0.1000
     50 H50       -12.5233    1.0906   56.1682 H       1  ZINC001492779707    0.0900
     51 H51       -11.2931   -0.1957   56.1547 H       1  ZINC001492779707    0.0800
     52 H52       -11.0351    3.0510   56.3376 H       1  ZINC001492779707    0.1100
     53 H53        -9.8050    1.8247   56.7320 H       1  ZINC001492779707    0.0600
     54 H54        -7.4817    3.1575   54.2389 H       1  ZINC001492779707    0.1100
     55 H55        -7.6748    1.8886   55.4738 H       1  ZINC001492779707    0.0600
     56 H56        -9.2280    2.1300   52.8562 H       1  ZINC001492779707    0.0600
     57 H57        -7.9979    0.9037   53.2506 H       1  ZINC001492779707    0.1100
@<TRIPOS>BOND
     1     1     2    1
     2     1    29    1
     3     1    30    1
     4     1    31    1
     5     2    19    1
     6     2     3    2
     7     3     4    1
     8     4     5    2
     9     5     6    1
    10     5    19    1
    11     6     7    1
    12     6     8    1
    13     7    32    1
    14     7    33    1
    15     7    34    1
    16     8     9    1
    17     8    35    1
    18     8    36    1
    19     9    18   ar
    20     9    10   ar
    21    10    11   ar
    22    10    37    1
    23    11    12   ar
    24    11    38    1
    25    12    13   ar
    26    12    39    1
    27    13    14    1
    28    13    18   ar
    29    14    15    1
    30    15    16    1
    31    15    17    1
    32    15    40    1
    33    16    41    1
    34    16    42    1
    35    16    43    1
    36    17    44    1
    37    17    45    1
    38    17    46    1
    39    18    47    1
    40    19    20    1
    41    20    21    1
    42    20    48    1
    43    20    49    1
    44    21    22    1
    45    21    50    1
    46    21    51    1
    47    22    23    1
    48    22    28    1
    49    22    24    1
    50    24    25    1
    51    24    52    1
    52    24    53    1
    53    25    26    1
    54    26    27    1
    55    26    54    1
    56    26    55    1
    57    27    28    1
    58    27    56    1
    59    27    57    1
@<TRIPOS>SUBSTRUCTURE
     1 ZINC001492779707        1 TEMP              0 ****  ****    0 ROOT


##########                                Name:    ZINC000623695407
##########                DOCK_Rotatable_Bonds:                  10
##########                         Heavy_Atoms:                  27
##########                    Molecular_Weight:             368.479
##########                DOCK_Rotatable_Bonds:                  10
##########                       Formal_Charge:           0.0299989
##########                     HBond_Acceptors:                   6
##########                        HBond_Donors:                   2
##########                         Heavy_Atoms:                  27
##########                          Grid_Score:          -31.494781
##########                     Grid_vdw_energy:          -30.854525
##########                      Grid_es_energy:           -0.640256
##########           Internal_energy_repulsive:           11.351400

@<TRIPOS>MOLECULE
ZINC000623695407
 55 57 1 0 0
SMALL
USER_CHARGES


@<TRIPOS>ATOM
      1 C1         -1.2839    1.3694   48.5894 C.3     1  ZINC000623695407    0.0300
      2 O2         -1.2225    2.7722   48.8553 O.3     1  ZINC000623695407   -0.3200
      3 C3         -1.4911    3.1715   50.1264 C.ar    1  ZINC000623695407    0.1300
      4 C4         -2.7767    3.0547   50.6343 C.ar    1  ZINC000623695407   -0.2100
      5 C5         -3.0470    3.4609   51.9268 C.ar    1  ZINC000623695407   -0.0600
      6 C6         -2.0375    3.9837   52.7137 C.ar    1  ZINC000623695407   -0.1100
      7 C7         -2.3352    4.4265   54.1231 C.3     1  ZINC000623695407    0.0600
      8 N8         -2.0174    3.3371   55.0560 N.3     1  ZINC000623695407   -0.4600
      9 C9         -0.8753    3.6956   55.9176 C.3     1  ZINC000623695407    0.0000
     10 C10        -1.6309    3.0554   57.0905 C.3     1  ZINC000623695407   -0.1300
     11 C11        -2.8717    3.4032   56.2564 C.3     1  ZINC000623695407    0.0100
     12 H12        -3.2636    4.4005   56.4562 H       1  ZINC000623695407    0.0900
     13 C13        -3.9548    2.3232   56.2954 C.3     1  ZINC000623695407    0.1600
     14 N14        -5.0188    2.6642   55.3478 N.am    1  ZINC000623695407   -0.7400
     15 C15        -6.2733    2.2166   55.5537 C.2     1  ZINC000623695407    0.7100
     16 O16        -6.5217    1.5287   56.5250 O.2     1  ZINC000623695407   -0.5900
     17 N17        -7.2525    2.5316   54.6828 N.am    1  ZINC000623695407   -0.7400
     18 C18        -8.6165    2.0466   54.9075 C.3     1  ZINC000623695407    0.1700
     19 H19        -8.5866    1.1557   55.5347 H       1  ZINC000623695407    0.0900
     20 C20        -9.4361    3.1342   55.6049 C.3     1  ZINC000623695407   -0.1600
     21 C21        -9.2633    1.7031   53.5642 C.3     1  ZINC000623695407   -0.0900
     22 C22        -9.7953    0.2939   53.6085 C.ar    1  ZINC000623695407   -0.0300
     23 C23        -9.7123   -0.5314   52.4975 C.ar    1  ZINC000623695407   -0.1700
     24 C24       -10.2110   -1.8180   52.5755 C.ar    1  ZINC000623695407    0.1000
     25 N25       -10.7608   -2.2619   53.6888 N.ar    1  ZINC000623695407   -0.4900
     26 C26       -10.8568   -1.5053   54.7646 C.ar    1  ZINC000623695407    0.1000
     27 C27       -10.3745   -0.2102   54.7631 C.ar    1  ZINC000623695407   -0.1700
     28 C28        -0.7552    4.1007   52.2098 C.ar    1  ZINC000623695407   -0.0700
     29 C29        -0.4787    3.6912   50.9198 C.ar    1  ZINC000623695407   -0.1500
     30 H30        -1.0492    1.1879   47.5406 H       1  ZINC000623695407    0.1000
     31 H31        -0.5624    0.8484   49.2187 H       1  ZINC000623695407    0.0600
     32 H32        -2.2871    1.0021   48.8060 H       1  ZINC000623695407    0.0600
     33 H33        -3.5657    2.6470   50.0198 H       1  ZINC000623695407    0.1300
     34 H34        -4.0477    3.3702   52.3227 H       1  ZINC000623695407    0.1200
     35 H35        -1.7300    5.3002   54.3650 H       1  ZINC000623695407    0.0600
     36 H36        -3.3916    4.6813   54.2085 H       1  ZINC000623695407    0.0700
     37 H37         0.0455    3.1734   55.6575 H       1  ZINC000623695407    0.0900
     38 H38        -0.7344    4.7709   56.0268 H       1  ZINC000623695407    0.0700
     39 H39        -1.4549    1.9856   57.2042 H       1  ZINC000623695407    0.1000
     40 H40        -1.5529    3.6084   58.0266 H       1  ZINC000623695407    0.0800
     41 H41        -3.5193    1.3619   56.0223 H       1  ZINC000623695407    0.0700
     42 H42        -4.3701    2.2614   57.3013 H       1  ZINC000623695407    0.0700
     43 H43        -4.8204    3.2120   54.5724 H       1  ZINC000623695407    0.3900
     44 H44        -7.0541    3.0795   53.9073 H       1  ZINC000623695407    0.3900
     45 H45       -10.4510    2.7732   55.7720 H       1  ZINC000623695407    0.0700
     46 H46        -8.9752    3.3788   56.5619 H       1  ZINC000623695407    0.0700
     47 H47        -9.4659    4.0251   54.9777 H       1  ZINC000623695407    0.0600
     48 H48       -10.0826    2.3948   53.3680 H       1  ZINC000623695407    0.1000
     49 H49        -8.5201    1.7861   52.7712 H       1  ZINC000623695407    0.0800
     50 H50        -9.2639   -0.1733   51.5826 H       1  ZINC000623695407    0.1300
     51 H51       -10.1502   -2.4672   51.7145 H       1  ZINC000623695407    0.1500
     52 H52       -11.3139   -1.9036   55.6583 H       1  ZINC000623695407    0.1600
     53 H53       -10.4556    0.4046   55.6474 H       1  ZINC000623695407    0.1400
     54 H54         0.0316    4.5092   52.8267 H       1  ZINC000623695407    0.1200
     55 H55         0.5230    3.7827   50.5267 H       1  ZINC000623695407    0.1300
@<TRIPOS>BOND
     1     1     2    1
     2     1    30    1
     3     1    31    1
     4     1    32    1
     5     2     3    1
     6     3    29   ar
     7     3     4   ar
     8     4     5   ar
     9     4    33    1
    10     5     6   ar
    11     5    34    1
    12     6     7    1
    13     6    28   ar
    14     7     8    1
    15     7    35    1
    16     7    36    1
    17     8    11    1
    18     8     9    1
    19     9    10    1
    20     9    37    1
    21     9    38    1
    22    10    11    1
    23    10    39    1
    24    10    40    1
    25    11    12    1
    26    11    13    1
    27    13    14    1
    28    13    41    1
    29    13    42    1
    30    14    15   am
    31    14    43    1
    32    15    16    2
    33    15    17   am
    34    17    18    1
    35    17    44    1
    36    18    19    1
    37    18    20    1
    38    18    21    1
    39    20    45    1
    40    20    46    1
    41    20    47    1
    42    21    22    1
    43    21    48    1
    44    21    49    1
    45    22    27   ar
    46    22    23   ar
    47    23    24   ar
    48    23    50    1
    49    24    25   ar
    50    24    51    1
    51    25    26   ar
    52    26    27   ar
    53    26    52    1
    54    27    53    1
    55    28    29   ar
    56    28    54    1
    57    29    55    1
@<TRIPOS>SUBSTRUCTURE
     1 ZINC000623695407        1 TEMP              0 ****  ****    0 ROOT


##########                                Name:    ZINC000420486261
##########                DOCK_Rotatable_Bonds:                   7
##########                         Heavy_Atoms:                  26
##########                    Molecular_Weight:             353.378
##########                DOCK_Rotatable_Bonds:                   7
##########                       Formal_Charge:        -2.98023e-08
##########                     HBond_Acceptors:                   7
##########                        HBond_Donors:                   0
##########                         Heavy_Atoms:                  26
##########                          Grid_Score:          -31.478302
##########                     Grid_vdw_energy:          -31.315287
##########                      Grid_es_energy:           -0.163015
##########           Internal_energy_repulsive:           12.563044

@<TRIPOS>MOLECULE
ZINC000420486261
 45 47 1 0 0
SMALL
USER_CHARGES


@<TRIPOS>ATOM
      1 C1         -8.5289    3.9811   54.7812 C.3     1  ZINC000420486261    0.0400
      2 O2         -8.9977    2.6207   54.5859 O.3     1  ZINC000420486261   -0.3500
      3 C3         -8.8807    2.1057   53.3471 C.2     1  ZINC000420486261    0.5100
      4 O4         -8.3996    2.7740   52.4547 O.2     1  ZINC000420486261   -0.4900
      5 C5         -9.3389    0.7248   53.0733 C.ar    1  ZINC000420486261   -0.0700
      6 C6         -9.1145    0.1273   51.8286 C.ar    1  ZINC000420486261   -0.0900
      7 C7         -9.5572   -1.1657   51.6104 C.ar    1  ZINC000420486261    0.1100
      8 N8        -10.1833   -1.8366   52.5528 N.ar    1  ZINC000420486261   -0.4200
      9 C9        -10.4193   -1.3126   53.7493 C.ar    1  ZINC000420486261    0.1900
     10 C10       -11.1279   -2.1132   54.7726 C.2     1  ZINC000420486261    0.2200
     11 N11       -11.5274   -1.6960   55.9582 N.2     1  ZINC000420486261   -0.4300
     12 C12       -12.1206   -2.7622   56.5352 C.2     1  ZINC000420486261    0.2200
     13 C13       -12.7369   -2.8017   57.8838 C.ar    1  ZINC000420486261   -0.0600
     14 C14       -13.8755   -3.5712   58.1104 C.ar    1  ZINC000420486261   -0.0300
     15 C15       -14.4452   -3.6047   59.3671 C.ar    1  ZINC000420486261   -0.1600
     16 C16       -13.8895   -2.8760   60.4039 C.ar    1  ZINC000420486261   -0.0600
     17 C17       -12.7602   -2.1091   60.1903 C.ar    1  ZINC000420486261   -0.2200
     18 C18       -12.1741   -2.0708   58.9349 C.ar    1  ZINC000420486261    0.1700
     19 O19       -11.0641   -1.3176   58.7236 O.3     1  ZINC000420486261   -0.2900
     20 C20       -10.5110   -0.6453   59.8568 C.3     1  ZINC000420486261    0.0600
     21 C21        -9.2136    0.0565   59.4502 C.3     1  ZINC000420486261   -0.0900
     22 C22        -9.5069    1.0672   58.3397 C.3     1  ZINC000420486261   -0.1500
     23 C23        -8.6269    0.7851   60.6610 C.3     1  ZINC000420486261   -0.1500
     24 N24       -12.0518   -3.7548   55.6847 N.2     1  ZINC000420486261   -0.3400
     25 O25       -11.4918   -3.4006   54.6690 O.3     1  ZINC000420486261    0.1000
     26 C26       -10.0018   -0.0185   54.0534 C.ar    1  ZINC000420486261   -0.0700
     27 H27        -8.6808    4.2721   55.8206 H       1  ZINC000420486261    0.1100
     28 H28        -7.4675    4.0379   54.5394 H       1  ZINC000420486261    0.0700
     29 H29        -9.0864    4.6545   54.1302 H       1  ZINC000420486261    0.0700
     30 H30        -8.6021    0.6686   51.0469 H       1  ZINC000420486261    0.1600
     31 H31        -9.3863   -1.6312   50.6510 H       1  ZINC000420486261    0.1800
     32 H32       -14.3122   -4.1410   57.3036 H       1  ZINC000420486261    0.1400
     33 H33       -15.3283   -4.2014   59.5416 H       1  ZINC000420486261    0.1300
     34 H34       -14.3409   -2.9065   61.3846 H       1  ZINC000420486261    0.1300
     35 H35       -12.3310   -1.5425   61.0034 H       1  ZINC000420486261    0.1400
     36 H36       -11.2234    0.0928   60.2248 H       1  ZINC000420486261    0.0600
     37 H37       -10.3007   -1.3708   60.6427 H       1  ZINC000420486261    0.0600
     38 H38        -8.4984   -0.6827   59.0893 H       1  ZINC000420486261    0.0800
     39 H39       -10.2221    1.8063   58.7006 H       1  ZINC000420486261    0.0600
     40 H40        -8.5827    1.5671   58.0500 H       1  ZINC000420486261    0.0700
     41 H41        -9.9249    0.5481   57.4771 H       1  ZINC000420486261    0.0600
     42 H42        -9.3421    1.5242   61.0219 H       1  ZINC000420486261    0.0500
     43 H43        -8.4180    0.0651   61.4521 H       1  ZINC000420486261    0.0600
     44 H44        -7.7026    1.2851   60.3713 H       1  ZINC000420486261    0.0600
     45 H45       -10.1945    0.4058   55.0277 H       1  ZINC000420486261    0.1600
@<TRIPOS>BOND
     1     1     2    1
     2     1    27    1
     3     1    28    1
     4     1    29    1
     5     2     3    1
     6     3     4    2
     7     3     5    1
     8     5    26   ar
     9     5     6   ar
    10     6     7   ar
    11     6    30    1
    12     7     8   ar
    13     7    31    1
    14     8     9   ar
    15     9    10    1
    16     9    26   ar
    17    10    25    1
    18    10    11    2
    19    11    12    1
    20    12    13    1
    21    12    24    2
    22    13    18   ar
    23    13    14   ar
    24    14    15   ar
    25    14    32    1
    26    15    16   ar
    27    15    33    1
    28    16    17   ar
    29    16    34    1
    30    17    18   ar
    31    17    35    1
    32    18    19    1
    33    19    20    1
    34    20    21    1
    35    20    36    1
    36    20    37    1
    37    21    22    1
    38    21    23    1
    39    21    38    1
    40    22    39    1
    41    22    40    1
    42    22    41    1
    43    23    42    1
    44    23    43    1
    45    23    44    1
    46    24    25    1
    47    26    45    1
@<TRIPOS>SUBSTRUCTURE
     1 ZINC000420486261        1 TEMP              0 ****  ****    0 ROOT


##########                                Name:    ZINC001272744746
##########                DOCK_Rotatable_Bonds:                   6
##########                         Heavy_Atoms:                  25
##########                    Molecular_Weight:             348.417
##########                DOCK_Rotatable_Bonds:                   6
##########                       Formal_Charge:           0.0299999
##########                     HBond_Acceptors:                   6
##########                        HBond_Donors:                   1
##########                         Heavy_Atoms:                  25
##########                          Grid_Score:          -31.456367
##########                     Grid_vdw_energy:          -30.320044
##########                      Grid_es_energy:           -1.136323
##########           Internal_energy_repulsive:           79.670044

@<TRIPOS>MOLECULE
ZINC001272744746
 50 52 1 0 0
SMALL
USER_CHARGES


@<TRIPOS>ATOM
      1 C1         -0.9068   -2.4448   48.7280 C.2     1  ZINC001272744746   -0.1700
      2 C2         -2.0224   -1.8995   48.3106 C.2     1  ZINC001272744746   -0.1700
      3 C3         -2.1946   -1.5572   46.8531 C.3     1  ZINC001272744746    0.1500
      4 N4         -1.5569   -0.2677   46.5757 N.am    1  ZINC001272744746   -0.6100
      5 C5         -0.6923    0.4501   47.5219 C.3     1  ZINC001272744746    0.0700
      6 C6          0.0603    1.4917   46.6762 C.3     1  ZINC001272744746    0.1100
      7 C7         -0.8868    1.6948   45.4794 C.3     1  ZINC001272744746   -0.1500
      8 C8         -1.6833    0.4084   45.4199 C.2     1  ZINC001272744746    0.5200
      9 O9         -2.3452    0.0444   44.4710 O.2     1  ZINC001272744746   -0.5200
     10 C10         1.3991    0.9366   46.2101 C.3     1  ZINC001272744746   -0.1000
     11 C11         2.3114    0.7252   47.4232 C.3     1  ZINC001272744746   -0.1200
     12 C12         2.4536    2.0494   48.1788 C.3     1  ZINC001272744746   -0.1200
     13 C13         1.0695    2.5410   48.6083 C.3     1  ZINC001272744746    0.0500
     14 N14         0.2284    2.7370   47.4190 N.3     1  ZINC001272744746   -0.5100
     15 C15        -1.0732    3.3123   47.7837 C.3     1  ZINC001272744746    0.0800
     16 C16        -0.9958    3.8888   49.1738 C.ar    1  ZINC001272744746   -0.0200
     17 C17        -0.4818    5.1574   49.3664 C.ar    1  ZINC001272744746   -0.1700
     18 C18        -0.4087    5.6911   50.6419 C.ar    1  ZINC001272744746    0.1200
     19 F19         0.0941    6.9313   50.8279 F       1  ZINC001272744746   -0.1200
     20 C20        -0.8523    4.9521   51.7286 C.ar    1  ZINC001272744746    0.0400
     21 O21        -0.7821    5.4744   52.9829 O.3     1  ZINC001272744746   -0.4700
     22 C22        -1.3697    3.6758   51.5330 C.ar    1  ZINC001272744746    0.1300
     23 O23        -1.8063    2.9475   52.5952 O.3     1  ZINC001272744746   -0.3000
     24 C24        -1.6750    3.5425   53.8877 C.3     1  ZINC001272744746    0.0200
     25 C25        -1.4443    3.1498   50.2530 C.ar    1  ZINC001272744746   -0.1800
     26 H26        -0.1105   -2.6492   48.0275 H       1  ZINC001272744746    0.1000
     27 H27        -0.7816   -2.6860   49.7732 H       1  ZINC001272744746    0.1000
     28 H28        -2.8187   -1.6951   49.0110 H       1  ZINC001272744746    0.1100
     29 H29        -1.7313   -2.3309   46.2409 H       1  ZINC001272744746    0.0900
     30 H30        -3.2571   -1.4952   46.6175 H       1  ZINC001272744746    0.0800
     31 H31        -1.2949    0.9458   48.2830 H       1  ZINC001272744746    0.0700
     32 H32         0.0125   -0.2391   47.9871 H       1  ZINC001272744746    0.0900
     33 H33        -1.5434    2.5475   45.6525 H       1  ZINC001272744746    0.1100
     34 H34        -0.3169    1.8308   44.5602 H       1  ZINC001272744746    0.1100
     35 H35         1.2414   -0.0154   45.7033 H       1  ZINC001272744746    0.0700
     36 H36         1.8657    1.6421   45.5227 H       1  ZINC001272744746    0.0800
     37 H37         1.8740   -0.0253   48.0819 H       1  ZINC001272744746    0.0600
     38 H38         3.2926    0.3898   47.0874 H       1  ZINC001272744746    0.0700
     39 H39         3.0760    1.8996   49.0609 H       1  ZINC001272744746    0.0700
     40 H40         2.9170    2.7912   47.5283 H       1  ZINC001272744746    0.0700
     41 H41         0.6078    1.8009   49.2619 H       1  ZINC001272744746    0.0400
     42 H42         1.1691    3.4858   49.1427 H       1  ZINC001272744746    0.0900
     43 H43        -1.3326    4.1009   47.0772 H       1  ZINC001272744746    0.1000
     44 H44        -1.8354    2.5337   47.7551 H       1  ZINC001272744746    0.0600
     45 H45        -0.1362    5.7332   48.5206 H       1  ZINC001272744746    0.1400
     46 H46        -1.1140    4.8848   53.6737 H       1  ZINC001272744746    0.3900
     47 H47        -2.2413    4.4734   53.9184 H       1  ZINC001272744746    0.0600
     48 H48        -2.0600    2.8581   54.6437 H       1  ZINC001272744746    0.1100
     49 H49        -0.6237    3.7500   54.0872 H       1  ZINC001272744746    0.0600
     50 H50        -1.8457    2.1591   50.0990 H       1  ZINC001272744746    0.1400
@<TRIPOS>BOND
     1     1     2    2
     2     1    26    1
     3     1    27    1
     4     2     3    1
     5     2    28    1
     6     3     4    1
     7     3    29    1
     8     3    30    1
     9     4     8   am
    10     4     5    1
    11     5     6    1
    12     5    31    1
    13     5    32    1
    14     6    14    1
    15     6     7    1
    16     6    10    1
    17     7     8    1
    18     7    33    1
    19     7    34    1
    20     8     9    2
    21    10    11    1
    22    10    35    1
    23    10    36    1
    24    11    12    1
    25    11    37    1
    26    11    38    1
    27    12    13    1
    28    12    39    1
    29    12    40    1
    30    13    14    1
    31    13    41    1
    32    13    42    1
    33    14    15    1
    34    15    16    1
    35    15    43    1
    36    15    44    1
    37    16    25   ar
    38    16    17   ar
    39    17    18   ar
    40    17    45    1
    41    18    19    1
    42    18    20   ar
    43    20    21    1
    44    20    22   ar
    45    21    46    1
    46    22    23    1
    47    22    25   ar
    48    23    24    1
    49    24    47    1
    50    24    48    1
    51    24    49    1
    52    25    50    1
@<TRIPOS>SUBSTRUCTURE
     1 ZINC001272744746        1 TEMP              0 ****  ****    0 ROOT


##########                                Name:    ZINC000942890482
##########                DOCK_Rotatable_Bonds:                   8
##########                         Heavy_Atoms:                  25
##########                    Molecular_Weight:             346.445
##########                DOCK_Rotatable_Bonds:                   8
##########                       Formal_Charge:          -0.0100004
##########                     HBond_Acceptors:                   5
##########                        HBond_Donors:                   0
##########                         Heavy_Atoms:                  25
##########                          Grid_Score:          -31.449564
##########                     Grid_vdw_energy:          -30.167063
##########                      Grid_es_energy:           -1.282501
##########           Internal_energy_repulsive:           20.811123

@<TRIPOS>MOLECULE
ZINC000942890482
 52 54 1 0 0
SMALL
USER_CHARGES


@<TRIPOS>ATOM
      1 C1          0.7232    4.9489   47.6981 C.3     1  ZINC000942890482   -0.1700
      2 C2         -0.7490    4.5846   47.8997 C.3     1  ZINC000942890482    0.1000
      3 N3         -0.8580    3.1648   48.2441 N.am    1  ZINC000942890482   -0.6000
      4 C4         -0.7013    2.2260   47.2897 C.2     1  ZINC000942890482    0.5700
      5 O5         -0.4695    2.5576   46.1433 O.2     1  ZINC000942890482   -0.5100
      6 C6         -0.8112    0.7944   47.6368 C.ar    1  ZINC000942890482   -0.1400
      7 C7         -2.0668    0.2139   47.8267 C.ar    1  ZINC000942890482   -0.0600
      8 C8         -2.1637   -1.1228   48.1499 C.ar    1  ZINC000942890482   -0.1600
      9 C9         -1.0173   -1.8903   48.2866 C.ar    1  ZINC000942890482    0.1300
     10 F10        -1.1178   -3.1998   48.6036 F       1  ZINC000942890482   -0.1300
     11 C11         0.2322   -1.3189   48.0987 C.ar    1  ZINC000942890482   -0.1600
     12 C12         0.3403    0.0153   47.7705 C.ar    1  ZINC000942890482   -0.0100
     13 C13         1.6987    0.6349   47.5664 C.3     1  ZINC000942890482   -0.1200
     14 C14        -1.1374    2.7654   49.6256 C.3     1  ZINC000942890482    0.1400
     15 H15        -0.9906    1.6934   49.7574 H       1  ZINC000942890482    0.1100
     16 C16        -2.5700    3.1865   50.0473 C.3     1  ZINC000942890482   -0.1500
     17 C17        -2.4501    3.3337   51.5789 C.3     1  ZINC000942890482    0.1100
     18 N18        -1.0291    3.5518   51.8866 N.am    1  ZINC000942890482   -0.6200
     19 C19        -0.5070    3.7064   53.1195 C.2     1  ZINC000942890482    0.5300
     20 O20         0.6852    3.8823   53.2556 O.2     1  ZINC000942890482   -0.5400
     21 C21        -1.4048    3.6606   54.3291 C.3     1  ZINC000942890482   -0.1300
     22 C22        -0.6408    3.0556   55.5086 C.3     1  ZINC000942890482   -0.0700
     23 C23        -1.5790    2.9235   56.7100 C.3     1  ZINC000942890482   -0.1600
     24 C24        -1.0847    3.4609   58.0546 C.3     1  ZINC000942890482   -0.1800
     25 C25        -2.1751    4.2097   57.2855 C.3     1  ZINC000942890482   -0.1800
     26 C26        -0.2688    3.5716   50.6231 C.3     1  ZINC000942890482    0.0900
     27 H27         1.2749    4.7546   48.6179 H       1  ZINC000942890482    0.0600
     28 H28         1.1394    4.3462   46.8908 H       1  ZINC000942890482    0.0600
     29 H29         0.8043    6.0052   47.4419 H       1  ZINC000942890482    0.0700
     30 H30        -1.1651    5.1872   48.7070 H       1  ZINC000942890482    0.0900
     31 H31        -1.3007    4.7788   46.9799 H       1  ZINC000942890482    0.0900
     32 H32        -2.9605    0.8110   47.7208 H       1  ZINC000942890482    0.1400
     33 H33        -3.1344   -1.5727   48.2974 H       1  ZINC000942890482    0.1400
     34 H34         1.1221   -1.9213   48.2063 H       1  ZINC000942890482    0.1400
     35 H35         2.0183    0.4788   46.5361 H       1  ZINC000942890482    0.0900
     36 H36         1.6452    1.7039   47.7723 H       1  ZINC000942890482    0.0700
     37 H37         2.4155    0.1700   48.2435 H       1  ZINC000942890482    0.0700
     38 H38        -2.8432    4.1369   49.5888 H       1  ZINC000942890482    0.1000
     39 H39        -3.2914    2.4112   49.7897 H       1  ZINC000942890482    0.0900
     40 H40        -3.0377    4.1873   51.9164 H       1  ZINC000942890482    0.0700
     41 H41        -2.7997    2.4240   52.0672 H       1  ZINC000942890482    0.0700
     42 H42        -1.7241    4.6714   54.5829 H       1  ZINC000942890482    0.0900
     43 H43        -2.2791    3.0478   54.1096 H       1  ZINC000942890482    0.0900
     44 H44        -0.2649    2.0708   55.2312 H       1  ZINC000942890482    0.0700
     45 H45         0.1957    3.7034   55.7703 H       1  ZINC000942890482    0.0700
     46 H46        -2.2026    2.0296   56.7234 H       1  ZINC000942890482    0.1000
     47 H47        -1.3832    2.9206   58.9529 H       1  ZINC000942890482    0.0900
     48 H48        -0.0913    3.9086   58.0832 H       1  ZINC000942890482    0.0900
     49 H49        -1.8990    5.1500   56.8083 H       1  ZINC000942890482    0.0900
     50 H50        -3.1909    4.1619   57.6779 H       1  ZINC000942890482    0.0900
     51 H51         0.7012    3.0927   50.7565 H       1  ZINC000942890482    0.0800
     52 H52        -0.1420    4.5960   50.2727 H       1  ZINC000942890482    0.0900
@<TRIPOS>BOND
     1     1     2    1
     2     1    27    1
     3     1    28    1
     4     1    29    1
     5     2     3    1
     6     2    30    1
     7     2    31    1
     8     3     4   am
     9     3    14    1
    10     4     5    2
    11     4     6    1
    12     6    12   ar
    13     6     7   ar
    14     7     8   ar
    15     7    32    1
    16     8     9   ar
    17     8    33    1
    18     9    10    1
    19     9    11   ar
    20    11    12   ar
    21    11    34    1
    22    12    13    1
    23    13    35    1
    24    13    36    1
    25    13    37    1
    26    14    15    1
    27    14    26    1
    28    14    16    1
    29    16    17    1
    30    16    38    1
    31    16    39    1
    32    17    18    1
    33    17    40    1
    34    17    41    1
    35    18    19   am
    36    18    26    1
    37    19    20    2
    38    19    21    1
    39    21    22    1
    40    21    42    1
    41    21    43    1
    42    22    23    1
    43    22    44    1
    44    22    45    1
    45    23    25    1
    46    23    24    1
    47    23    46    1
    48    24    25    1
    49    24    47    1
    50    24    48    1
    51    25    49    1
    52    25    50    1
    53    26    51    1
    54    26    52    1
@<TRIPOS>SUBSTRUCTURE
     1 ZINC000942890482        1 TEMP              0 ****  ****    0 ROOT


##########                                Name:    ZINC000451019064
##########                DOCK_Rotatable_Bonds:                   8
##########                         Heavy_Atoms:                  23
##########                    Molecular_Weight:             346.534
##########                DOCK_Rotatable_Bonds:                   8
##########                       Formal_Charge:          -0.0200008
##########                     HBond_Acceptors:                   6
##########                        HBond_Donors:                   1
##########                         Heavy_Atoms:                  23
##########                          Grid_Score:          -31.440746
##########                     Grid_vdw_energy:          -30.175631
##########                      Grid_es_energy:           -1.265117
##########           Internal_energy_repulsive:            7.567935

@<TRIPOS>MOLECULE
ZINC000451019064
 57 58 1 0 0
SMALL
USER_CHARGES


@<TRIPOS>ATOM
      1 C1         -0.0681    1.8474   44.6471 C.3     1  ZINC000451019064   -0.1500
      2 C2         -1.0634    1.5603   45.7732 C.3     1  ZINC000451019064    0.0900
      3 H3         -2.0608    1.8755   45.4665 H       1  ZINC000451019064    0.0700
      4 C4         -0.6483    2.3290   47.0305 C.3     1  ZINC000451019064    0.0200
      5 N5         -1.5629    1.9896   48.1303 N.3     1  ZINC000451019064   -0.5400
      6 C6         -1.2334    2.7506   49.3428 C.3     1  ZINC000451019064    0.0600
      7 C7         -2.4760    2.8617   50.2287 C.3     1  ZINC000451019064   -0.1300
      8 C8         -2.8277    4.3369   50.4312 C.3     1  ZINC000451019064    0.1100
      9 N9         -3.5393    4.4993   51.7014 N.am    1  ZINC000451019064   -1.1200
     10 S10        -2.7319    5.0496   53.0384 S.o2    1  ZINC000451019064    2.6100
     11 O11        -1.7675    4.0407   53.3053 O.2     1  ZINC000451019064   -0.9600
     12 O12        -2.3349    6.3687   52.6897 O.2     1  ZINC000451019064   -0.9500
     13 C13        -3.9910    5.0878   54.3437 C.3     1  ZINC000451019064   -0.6300
     14 C14        -4.6910    3.7294   54.4170 C.3     1  ZINC000451019064   -0.1100
     15 C15        -5.8084    3.7870   55.4606 C.3     1  ZINC000451019064   -0.0800
     16 C16        -6.6516    2.5133   55.3758 C.3     1  ZINC000451019064   -0.1200
     17 C17        -7.7691    2.5709   56.4193 C.3     1  ZINC000451019064   -0.1200
     18 C18        -7.1565    2.6849   57.8167 C.3     1  ZINC000451019064   -0.1200
     19 C19        -6.3132    3.9587   57.9015 C.3     1  ZINC000451019064   -0.1200
     20 C20        -5.1958    3.9010   56.8579 C.3     1  ZINC000451019064   -0.1200
     21 C21        -1.5456    0.5435   48.3949 C.3     1  ZINC000451019064    0.0200
     22 C22        -1.9516   -0.2072   47.1239 C.3     1  ZINC000451019064    0.0900
     23 H23        -2.9751    0.0560   46.8569 H       1  ZINC000451019064    0.0700
     24 C24        -1.8592   -1.7146   47.3692 C.3     1  ZINC000451019064   -0.1500
     25 O25        -1.0718    0.1588   46.0574 O.3     1  ZINC000451019064   -0.3800
     26 H26        -0.3633    1.2987   43.7527 H       1  ZINC000451019064    0.0700
     27 H27        -0.0611    2.9159   44.4321 H       1  ZINC000451019064    0.0700
     28 H28         0.9290    1.5320   44.9543 H       1  ZINC000451019064    0.0600
     29 H29         0.3698    2.0538   47.3058 H       1  ZINC000451019064    0.0400
     30 H30        -0.6963    3.4001   46.8347 H       1  ZINC000451019064    0.0900
     31 H31        -0.4420    2.2380   49.8897 H       1  ZINC000451019064    0.0400
     32 H32        -0.8951    3.7487   49.0647 H       1  ZINC000451019064    0.0800
     33 H33        -3.3111    2.3516   49.7487 H       1  ZINC000451019064    0.0800
     34 H34        -2.2753    2.4000   51.1955 H       1  ZINC000451019064    0.0800
     35 H35        -1.9129    4.9294   50.4488 H       1  ZINC000451019064    0.0800
     36 H36        -3.4635    4.6744   49.6127 H       1  ZINC000451019064    0.0700
     37 H37        -4.4835    4.2846   51.7593 H       1  ZINC000451019064    0.4200
     38 H38        -3.5159    5.3039   55.3007 H       1  ZINC000451019064    0.1300
     39 H39        -4.7240    5.8627   54.1189 H       1  ZINC000451019064    0.1400
     40 H40        -5.1157    3.4864   53.4430 H       1  ZINC000451019064    0.0800
     41 H41        -3.9689    2.9634   54.6999 H       1  ZINC000451019064    0.0800
     42 H42        -6.4401    4.6544   55.2689 H       1  ZINC000451019064    0.0800
     43 H43        -7.0881    2.4321   54.3803 H       1  ZINC000451019064    0.0600
     44 H44        -6.0199    1.6459   55.5673 H       1  ZINC000451019064    0.0700
     45 H45        -8.4007    3.4383   56.2276 H       1  ZINC000451019064    0.0600
     46 H46        -8.3699    1.6635   56.3589 H       1  ZINC000451019064    0.0600
     47 H47        -7.9525    2.7260   58.5601 H       1  ZINC000451019064    0.0600
     48 H48        -6.5248    1.8176   58.0083 H       1  ZINC000451019064    0.0600
     49 H49        -6.9449    4.8261   57.7099 H       1  ZINC000451019064    0.0600
     50 H50        -5.8768    4.0399   58.8970 H       1  ZINC000451019064    0.0600
     51 H51        -4.5641    3.0337   57.0496 H       1  ZINC000451019064    0.0700
     52 H52        -4.5950    4.8085   56.9184 H       1  ZINC000451019064    0.0600
     53 H53        -0.5418    0.2399   48.6918 H       1  ZINC000451019064    0.0400
     54 H54        -2.2485    0.3114   49.1949 H       1  ZINC000451019064    0.0900
     55 H55        -2.5282   -1.9917   48.1839 H       1  ZINC000451019064    0.0700
     56 H56        -2.1484   -2.2484   46.4640 H       1  ZINC000451019064    0.0700
     57 H57        -0.8352   -1.9774   47.6346 H       1  ZINC000451019064    0.0600
@<TRIPOS>BOND
     1     1     2    1
     2     1    26    1
     3     1    27    1
     4     1    28    1
     5     2     3    1
     6     2    25    1
     7     2     4    1
     8     4     5    1
     9     4    29    1
    10     4    30    1
    11     5     6    1
    12     5    21    1
    13     6     7    1
    14     6    31    1
    15     6    32    1
    16     7     8    1
    17     7    33    1
    18     7    34    1
    19     8     9    1
    20     8    35    1
    21     8    36    1
    22     9    10   am
    23     9    37    1
    24    10    11    2
    25    10    12    2
    26    10    13    1
    27    13    14    1
    28    13    38    1
    29    13    39    1
    30    14    15    1
    31    14    40    1
    32    14    41    1
    33    15    20    1
    34    15    16    1
    35    15    42    1
    36    16    17    1
    37    16    43    1
    38    16    44    1
    39    17    18    1
    40    17    45    1
    41    17    46    1
    42    18    19    1
    43    18    47    1
    44    18    48    1
    45    19    20    1
    46    19    49    1
    47    19    50    1
    48    20    51    1
    49    20    52    1
    50    21    22    1
    51    21    53    1
    52    21    54    1
    53    22    23    1
    54    22    24    1
    55    22    25    1
    56    24    55    1
    57    24    56    1
    58    24    57    1
@<TRIPOS>SUBSTRUCTURE
     1 ZINC000451019064        1 TEMP              0 ****  ****    0 ROOT


##########                                Name:    ZINC000787750060
##########                DOCK_Rotatable_Bonds:                   6
##########                         Heavy_Atoms:                  24
##########                    Molecular_Weight:             347.438
##########                DOCK_Rotatable_Bonds:                   6
##########                       Formal_Charge:           0.0200003
##########                     HBond_Acceptors:                   7
##########                        HBond_Donors:                   2
##########                         Heavy_Atoms:                  24
##########                          Grid_Score:          -31.417633
##########                     Grid_vdw_energy:          -31.697422
##########                      Grid_es_energy:            0.279790
##########           Internal_energy_repulsive:            6.721761

@<TRIPOS>MOLECULE
ZINC000787750060
 45 47 1 0 0
SMALL
USER_CHARGES


@<TRIPOS>ATOM
      1 C1         -9.3167    0.5643   52.2389 C.3     1  ZINC000787750060   -0.1200
      2 C2         -9.9018    0.0790   53.5401 C.ar    1  ZINC000787750060   -0.0400
      3 C3         -9.7871    0.8581   54.6796 C.ar    1  ZINC000787750060   -0.1300
      4 C4        -10.3183    0.4241   55.8750 C.ar    1  ZINC000787750060   -0.0700
      5 C5        -10.9759   -0.8064   55.9390 C.ar    1  ZINC000787750060   -0.1700
      6 C6        -11.5474   -1.2769   57.2152 C.2     1  ZINC000787750060    0.5600
      7 O7        -12.7275   -1.5616   57.2848 O.2     1  ZINC000787750060   -0.5200
      8 N8        -10.7613   -1.3912   58.3041 N.am    1  ZINC000787750060   -0.7300
      9 C9        -11.3291   -1.8567   59.5718 C.3     1  ZINC000787750060    0.2100
     10 C10       -10.4069   -1.4814   60.7031 C.2     1  ZINC000787750060   -0.2800
     11 C11        -9.0765   -1.5672   60.6898 C.2     1  ZINC000787750060    0.0900
     12 N12        -8.4894   -1.1768   61.8072 N.2     1  ZINC000787750060   -0.5200
     13 C13        -9.2633   -0.7654   62.7630 C.2     1  ZINC000787750060    0.2300
     14 N14        -8.8277   -0.3192   64.0009 N.3     1  ZINC000787750060   -0.4500
     15 C15        -9.6025    0.8496   64.4421 C.3     1  ZINC000787750060    0.0200
     16 C16        -9.1300    1.2718   65.8358 C.3     1  ZINC000787750060    0.0600
     17 O17        -7.7251    1.5367   65.7975 O.3     1  ZINC000787750060   -0.3800
     18 C18        -6.9400    0.4194   65.3726 C.3     1  ZINC000787750060    0.0600
     19 C19        -7.3904   -0.0114   63.9742 C.3     1  ZINC000787750060    0.0300
     20 S20       -10.8986   -0.8456   62.2707 S.3     1  ZINC000787750060    0.1700
     21 C21       -11.0902   -1.5918   54.7834 C.ar    1  ZINC000787750060    0.1700
     22 O22       -11.7267   -2.7888   54.8333 O.3     1  ZINC000787750060   -0.4700
     23 C23       -10.5540   -1.1374   53.5882 C.ar    1  ZINC000787750060   -0.1200
     24 C24       -10.6735   -1.9769   52.3424 C.3     1  ZINC000787750060   -0.1200
     25 H25       -10.0631    1.1483   51.7003 H       1  ZINC000787750060    0.0800
     26 H26        -8.4455    1.1871   52.4420 H       1  ZINC000787750060    0.0700
     27 H27        -9.0185   -0.2913   51.6330 H       1  ZINC000787750060    0.0800
     28 H28        -9.2788    1.8097   54.6312 H       1  ZINC000787750060    0.1300
     29 H29       -10.2260    1.0346   56.7611 H       1  ZINC000787750060    0.1300
     30 H30        -9.8197   -1.1652   58.2483 H       1  ZINC000787750060    0.4000
     31 H31       -12.3024   -1.3910   59.7267 H       1  ZINC000787750060    0.0900
     32 H32       -11.4453   -2.9400   59.5419 H       1  ZINC000787750060    0.0800
     33 H33        -8.5233   -1.9268   59.8347 H       1  ZINC000787750060    0.1800
     34 H34        -9.4517    1.6716   63.7422 H       1  ZINC000787750060    0.0600
     35 H35       -10.6609    0.5919   64.4793 H       1  ZINC000787750060    0.1000
     36 H36        -9.6619    2.1723   66.1432 H       1  ZINC000787750060    0.1100
     37 H37        -9.3300    0.4699   66.5464 H       1  ZINC000787750060    0.0700
     38 H38        -5.8880    0.7033   65.3448 H       1  ZINC000787750060    0.1100
     39 H39        -7.0763   -0.4075   66.0696 H       1  ZINC000787750060    0.0600
     40 H40        -6.8340   -0.8979   63.6697 H       1  ZINC000787750060    0.1000
     41 H41        -7.2042    0.7967   63.2667 H       1  ZINC000787750060    0.0700
     42 H42       -11.4056   -3.4322   54.1867 H       1  ZINC000787750060    0.4000
     43 H43       -11.5933   -1.7189   51.8173 H       1  ZINC000787750060    0.0700
     44 H44        -9.8190   -1.7870   51.6930 H       1  ZINC000787750060    0.0700
     45 H45       -10.6948   -3.0318   52.6158 H       1  ZINC000787750060    0.0800
@<TRIPOS>BOND
     1     1     2    1
     2     1    25    1
     3     1    26    1
     4     1    27    1
     5     2    23   ar
     6     2     3   ar
     7     3     4   ar
     8     3    28    1
     9     4     5   ar
    10     4    29    1
    11     5     6    1
    12     5    21   ar
    13     6     7    2
    14     6     8   am
    15     8     9    1
    16     8    30    1
    17     9    10    1
    18     9    31    1
    19     9    32    1
    20    10    20    1
    21    10    11    2
    22    11    12    1
    23    11    33    1
    24    12    13    2
    25    13    14    1
    26    13    20    1
    27    14    19    1
    28    14    15    1
    29    15    16    1
    30    15    34    1
    31    15    35    1
    32    16    17    1
    33    16    36    1
    34    16    37    1
    35    17    18    1
    36    18    19    1
    37    18    38    1
    38    18    39    1
    39    19    40    1
    40    19    41    1
    41    21    22    1
    42    21    23   ar
    43    22    42    1
    44    23    24    1
    45    24    43    1
    46    24    44    1
    47    24    45    1
@<TRIPOS>SUBSTRUCTURE
     1 ZINC000787750060        1 TEMP              0 ****  ****    0 ROOT


##########                                Name:    ZINC000350493047
##########                DOCK_Rotatable_Bonds:                   7
##########                         Heavy_Atoms:                  24
##########                    Molecular_Weight:             330.387
##########                DOCK_Rotatable_Bonds:                   7
##########                       Formal_Charge:          -0.0300002
##########                     HBond_Acceptors:                   7
##########                        HBond_Donors:                   3
##########                         Heavy_Atoms:                  24
##########                          Grid_Score:          -31.387396
##########                     Grid_vdw_energy:          -31.724880
##########                      Grid_es_energy:            0.337485
##########           Internal_energy_repulsive:            7.485862

@<TRIPOS>MOLECULE
ZINC000350493047
 46 48 1 0 0
SMALL
USER_CHARGES


@<TRIPOS>ATOM
      1 C1         -2.3719    0.3375   45.0929 C.3     1  <0>        -0.1600
      2 C2         -1.3658    0.1824   46.2351 C.3     1  <0>         0.2600
      3 H3         -0.3610    0.0868   45.8236 H       1  <0>         0.1200
      4 N4         -1.6909   -1.0158   47.0129 N.am    1  <0>        -0.7400
      5 C5         -0.8036   -1.5031   47.9025 C.2     1  <0>         0.7100
      6 N6         -1.1034   -2.6045   48.6192 N.am    1  <0>        -0.8600
      7 O7          0.2676   -0.9494   48.0584 O.2     1  <0>        -0.5900
      8 C8         -1.4295    1.3941   47.1288 C.2     1  <0>         0.1700
      9 N9         -0.9401    2.5695   46.8645 N.2     1  <0>        -0.3800
     10 O10        -1.1530    3.3343   47.7814 O.3     1  <0>         0.0900
     11 C11        -1.8232    2.6979   48.7548 C.2     1  <0>         0.2400
     12 C12        -2.2729    3.2737   50.0380 C.ar    1  <0>        -0.0800
     13 C13        -1.5120    4.2620   50.6670 C.ar    1  <0>        -0.0200
     14 C14        -1.9349    4.7968   51.8641 C.ar    1  <0>        -0.2200
     15 C15        -3.1164    4.3540   52.4461 C.ar    1  <0>         0.1700
     16 O16        -3.5295    4.8832   53.6262 O.3     1  <0>        -0.3000
     17 C17        -3.4207    4.0521   54.7835 C.3     1  <0>         0.0800
     18 C18        -2.0349    3.4048   54.8181 C.3     1  <0>        -0.1500
     19 C19        -1.9184    2.5150   56.0572 C.3     1  <0>        -0.1200
     20 C20        -2.1165    3.3634   57.3149 C.3     1  <0>        -0.1300
     21 C21        -3.5024    4.0108   57.2804 C.3     1  <0>        -0.1200
     22 C22        -3.6189    4.9006   56.0412 C.3     1  <0>        -0.1200
     23 C23        -3.8762    3.3715   51.8234 C.ar    1  <0>        -0.1600
     24 C24        -3.4633    2.8358   50.6233 C.ar    1  <0>        -0.0300
     25 N25        -2.0066    1.4566   48.3388 N.2     1  <0>        -0.4700
     26 H26        -3.3767    0.4331   45.5044 H       1  <0>         0.0600
     27 H27        -2.1300    1.2289   44.5142 H       1  <0>         0.0700
     28 H28        -2.3258   -0.5389   44.4466 H       1  <0>         0.0800
     29 H29        -2.5450   -1.4582   46.8877 H       1  <0>         0.4000
     30 H30        -0.4651   -2.9545   49.2603 H       1  <0>         0.4000
     31 H31        -1.9574   -3.0470   48.4941 H       1  <0>         0.4200
     32 H32        -0.5932    4.6062   50.2156 H       1  <0>         0.1400
     33 H33        -1.3472    5.5608   52.3510 H       1  <0>         0.1400
     34 H34        -4.1840    3.2748   54.7457 H       1  <0>         0.0800
     35 H35        -1.8937    2.8003   53.9221 H       1  <0>         0.0700
     36 H36        -1.2716    4.1821   54.8559 H       1  <0>         0.0800
     37 H37        -2.6816    1.7377   56.0194 H       1  <0>         0.0600
     38 H38        -0.9311    2.0538   56.0819 H       1  <0>         0.0700
     39 H39        -2.0335    2.7294   58.1977 H       1  <0>         0.0700
     40 H40        -1.3533    4.1407   57.3528 H       1  <0>         0.0700
     41 H41        -4.2656    3.2334   57.2424 H       1  <0>         0.0700
     42 H42        -3.6435    4.6152   58.1763 H       1  <0>         0.0700
     43 H43        -2.8556    5.6779   56.0790 H       1  <0>         0.0800
     44 H44        -4.6062    5.3617   56.0166 H       1  <0>         0.0700
     45 H45        -4.7942    3.0302   52.2789 H       1  <0>         0.1400
     46 H46        -4.0547    2.0724   50.1397 H       1  <0>         0.1400
@<TRIPOS>BOND
     1     1     2    1
     2     1    26    1
     3     1    27    1
     4     1    28    1
     5     2     3    1
     6     2     4    1
     7     2     8    1
     8     4     5   am
     9     4    29    1
    10     5     6   am
    11     5     7    2
    12     6    30    1
    13     6    31    1
    14     8    25    1
    15     8     9    2
    16     9    10    1
    17    10    11    1
    18    11    12    1
    19    11    25    2
    20    12    24   ar
    21    12    13   ar
    22    13    14   ar
    23    13    32    1
    24    14    15   ar
    25    14    33    1
    26    15    16    1
    27    15    23   ar
    28    16    17    1
    29    17    22    1
    30    17    18    1
    31    17    34    1
    32    18    19    1
    33    18    35    1
    34    18    36    1
    35    19    20    1
    36    19    37    1
    37    19    38    1
    38    20    21    1
    39    20    39    1
    40    20    40    1
    41    21    22    1
    42    21    41    1
    43    21    42    1
    44    22    43    1
    45    22    44    1
    46    23    24   ar
    47    23    45    1
    48    24    46    1
@<TRIPOS>SUBSTRUCTURE
     1 <0>         1 TEMP              0 ****  ****    0 ROOT


##########                                Name:    ZINC000945148121
##########                DOCK_Rotatable_Bonds:                   6
##########                         Heavy_Atoms:                  24
##########                    Molecular_Weight:             332.446
##########                DOCK_Rotatable_Bonds:                   6
##########                       Formal_Charge:           0.0100009
##########                     HBond_Acceptors:                   6
##########                        HBond_Donors:                   2
##########                         Heavy_Atoms:                  24
##########                          Grid_Score:          -31.385092
##########                     Grid_vdw_energy:          -29.233448
##########                      Grid_es_energy:           -2.151644
##########           Internal_energy_repulsive:           20.455759

@<TRIPOS>MOLECULE
ZINC000945148121
 52 54 1 0 0
SMALL
USER_CHARGES


@<TRIPOS>ATOM
      1 O1         -2.9872    6.5119   53.6232 O.2     1  ZINC000945148121   -0.5100
      2 C2         -3.4537    5.4322   53.9192 C.2     1  ZINC000945148121    0.5200
      3 C3         -4.1488    5.2492   55.2437 C.3     1  ZINC000945148121   -0.0500
      4 C4         -3.9760    3.8264   55.7094 C.2     1  ZINC000945148121    0.0100
      5 C5         -2.8322    3.1164   55.6767 C.2     1  ZINC000945148121   -0.0500
      6 N6         -3.1182    1.8807   56.1913 N.pl3   1  ZINC000945148121   -0.5700
      7 C7         -4.4277    1.8786   56.5211 C.2     1  ZINC000945148121    0.1800
      8 N8         -4.9331    3.0473   56.2346 N.2     1  ZINC000945148121   -0.4700
      9 N9         -3.3554    4.3975   53.0611 N.am    1  ZINC000945148121   -0.7300
     10 C10        -2.6797    4.5754   51.7736 C.3     1  ZINC000945148121    0.1500
     11 C11        -1.1732    4.3779   51.9568 C.3     1  ZINC000945148121   -0.1400
     12 C12        -0.4664    4.5987   50.6157 C.3     1  ZINC000945148121    0.1100
     13 N13        -1.0729    3.7153   49.6104 N.am    1  ZINC000945148121   -0.6100
     14 C14        -0.3084    2.8799   48.8796 C.2     1  ZINC000945148121    0.5200
     15 O15         0.8920    2.8514   49.0497 O.2     1  ZINC000945148121   -0.5400
     16 C16        -0.9453    1.9813   47.8511 C.3     1  ZINC000945148121   -0.1000
     17 C17         0.1060    1.4767   46.9002 C.3     1  ZINC000945148121   -0.1200
     18 C18        -0.4316    1.2984   45.4675 C.3     1  ZINC000945148121   -0.1200
     19 C19        -1.8391    0.6730   45.4310 C.3     1  ZINC000945148121   -0.1200
     20 C20        -1.9949   -0.4521   46.4179 C.3     1  ZINC000945148121   -0.1200
     21 C21        -2.5943    0.1178   47.7199 C.3     1  ZINC000945148121   -0.1200
     22 C22        -1.5940    0.7700   48.5520 C.3     1  ZINC000945148121   -0.1000
     23 C23        -2.5288    3.7595   49.4174 C.3     1  ZINC000945148121    0.1100
     24 C24        -3.2124    3.5481   50.7720 C.3     1  ZINC000945148121   -0.1400
     25 H25        -3.7148    5.9273   55.9786 H       1  ZINC000945148121    0.1000
     26 H26        -5.2106    5.4679   55.1302 H       1  ZINC000945148121    0.1000
     27 H27        -1.8736    3.4565   55.3136 H       1  ZINC000945148121    0.1800
     28 H28        -2.4963    1.1441   56.2992 H       1  ZINC000945148121    0.4200
     29 H29        -4.9666    1.0487   56.9539 H       1  ZINC000945148121    0.2100
     30 H30        -3.7320    3.5350   53.2963 H       1  ZINC000945148121    0.4000
     31 H31        -2.8709    5.5810   51.3989 H       1  ZINC000945148121    0.0900
     32 H32        -0.7986    5.0945   52.6877 H       1  ZINC000945148121    0.0800
     33 H33        -0.9791    3.3644   52.3077 H       1  ZINC000945148121    0.0700
     34 H34        -0.5837    5.6376   50.3075 H       1  ZINC000945148121    0.0700
     35 H35         0.5929    4.3630   50.7177 H       1  ZINC000945148121    0.1000
     36 H36        -1.7052    2.5359   47.3005 H       1  ZINC000945148121    0.1000
     37 H37         0.9335    2.1860   46.8807 H       1  ZINC000945148121    0.0700
     38 H38         0.4756    0.5165   47.2602 H       1  ZINC000945148121    0.0700
     39 H39        -0.4675    2.2735   44.9816 H       1  ZINC000945148121    0.0600
     40 H40         0.2527    0.6566   44.9125 H       1  ZINC000945148121    0.0700
     41 H41        -2.5742    1.4453   45.6576 H       1  ZINC000945148121    0.0600
     42 H42        -2.0296    0.2911   44.4280 H       1  ZINC000945148121    0.0600
     43 H43        -2.6635   -1.2090   46.0078 H       1  ZINC000945148121    0.0600
     44 H44        -1.0206   -0.8942   46.6261 H       1  ZINC000945148121    0.0700
     45 H45        -3.3680    0.8419   47.4649 H       1  ZINC000945148121    0.0600
     46 H46        -3.0477   -0.6961   48.2856 H       1  ZINC000945148121    0.0600
     47 H47        -0.8163    0.0479   48.8006 H       1  ZINC000945148121    0.0700
     48 H48        -2.0675    1.1076   49.4740 H       1  ZINC000945148121    0.0700
     49 H49        -2.8143    4.7300   49.0115 H       1  ZINC000945148121    0.0700
     50 H50        -2.8302    2.9701   48.7289 H       1  ZINC000945148121    0.1000
     51 H51        -2.9991    2.5424   51.1341 H       1  ZINC000945148121    0.0700
     52 H52        -4.2893    3.6742   50.6596 H       1  ZINC000945148121    0.0800
@<TRIPOS>BOND
     1     1     2    2
     2     2     3    1
     3     2     9   am
     4     3     4    1
     5     3    25    1
     6     3    26    1
     7     4     8    1
     8     4     5    2
     9     5     6    1
    10     5    27    1
    11     6     7    1
    12     6    28    1
    13     7     8    2
    14     7    29    1
    15     9    10    1
    16     9    30    1
    17    10    24    1
    18    10    11    1
    19    10    31    1
    20    11    12    1
    21    11    32    1
    22    11    33    1
    23    12    13    1
    24    12    34    1
    25    12    35    1
    26    13    14   am
    27    13    23    1
    28    14    15    2
    29    14    16    1
    30    16    22    1
    31    16    17    1
    32    16    36    1
    33    17    18    1
    34    17    37    1
    35    17    38    1
    36    18    19    1
    37    18    39    1
    38    18    40    1
    39    19    20    1
    40    19    41    1
    41    19    42    1
    42    20    21    1
    43    20    43    1
    44    20    44    1
    45    21    22    1
    46    21    45    1
    47    21    46    1
    48    22    47    1
    49    22    48    1
    50    23    24    1
    51    23    49    1
    52    23    50    1
    53    24    51    1
    54    24    52    1
@<TRIPOS>SUBSTRUCTURE
     1 ZINC000945148121        1 TEMP              0 ****  ****    0 ROOT


##########                                Name:    ZINC001181473921
##########                DOCK_Rotatable_Bonds:                   9
##########                         Heavy_Atoms:                  24
##########                    Molecular_Weight:             357.431
##########                DOCK_Rotatable_Bonds:                   9
##########                       Formal_Charge:        -5.96046e-08
##########                     HBond_Acceptors:                   9
##########                        HBond_Donors:                   4
##########                         Heavy_Atoms:                  24
##########                          Grid_Score:          -31.372089
##########                     Grid_vdw_energy:          -29.377043
##########                      Grid_es_energy:           -1.995046
##########           Internal_energy_repulsive:           60.510262

@<TRIPOS>MOLECULE
ZINC001181473921
 47 48 1 0 0
SMALL
USER_CHARGES


@<TRIPOS>ATOM
      1 C1          1.8973    0.9345   47.3488 C.3     1  ZINC001181473921   -0.1300
      2 C2          0.5963    0.1781   47.2694 C.2     1  ZINC001181473921    0.1900
      3 C3          0.4423   -0.9590   47.9810 C.2     1  ZINC001181473921   -0.2400
      4 C4         -0.7723   -1.6702   47.9111 C.2     1  ZINC001181473921    0.2500
      5 O5         -0.9423   -2.8122   48.6192 O.3     1  ZINC001181473921   -0.4600
      6 C6         -1.7878   -1.1840   47.1087 C.2     1  ZINC001181473921   -0.3700
      7 C7         -1.5810   -0.0009   46.3898 C.2     1  ZINC001181473921    0.5300
      8 O8         -2.4682    0.4419   45.6770 O.2     1  ZINC001181473921   -0.5500
      9 N9         -0.4084    0.6526   46.4870 N.am    1  ZINC001181473921   -0.5000
     10 C10        -0.2079    1.8899   45.7284 C.3     1  ZINC001181473921    0.1000
     11 C11         0.2919    1.5509   44.3227 C.3     1  ZINC001181473921   -0.1600
     12 C12         0.5401    2.8250   43.5569 C.2     1  ZINC001181473921    0.5200
     13 O13         0.4054    2.8441   42.3517 O.2     1  ZINC001181473921   -0.5300
     14 N14         0.9117    3.9431   44.2113 N.am    1  ZINC001181473921   -0.7200
     15 C15         1.1546    5.1811   43.4666 C.3     1  ZINC001181473921    0.1400
     16 H16         0.4915    5.2477   42.6040 H       1  ZINC001181473921    0.1000
     17 C17         2.6371    5.2759   43.0280 C.3     1  ZINC001181473921   -0.1300
     18 C18         2.8794    6.7875   42.8380 C.3     1  ZINC001181473921   -0.1500
     19 C19         1.8326    7.5125   43.7019 C.3     1  ZINC001181473921   -0.0800
     20 H20         1.1955    8.1344   43.0730 H       1  ZINC001181473921    0.0900
     21 C21         2.5296    8.3749   44.7562 C.3     1  ZINC001181473921   -0.6200
     22 S22         3.5532    7.3205   45.8196 S.o2    1  ZINC001181473921    2.6100
     23 N23         4.2406    8.3685   46.9019 N.am    1  ZINC001181473921   -1.2500
     24 O24         2.7365    6.4763   46.6193 O.2     1  ZINC001181473921   -0.9600
     25 O25         4.6549    6.7971   45.0905 O.2     1  ZINC001181473921   -0.9600
     26 C26         0.9857    6.4165   44.3855 C.3     1  ZINC001181473921   -0.1200
     27 H27         1.7011    1.9644   47.6471 H       1  ZINC001181473921    0.0900
     28 H28         2.5484    0.4610   48.0836 H       1  ZINC001181473921    0.1000
     29 H29         2.3832    0.9250   46.3732 H       1  ZINC001181473921    0.0900
     30 H30         1.2478   -1.3226   48.6018 H       1  ZINC001181473921    0.1500
     31 H31        -0.9562   -3.6128   48.0771 H       1  ZINC001181473921    0.4100
     32 H32        -2.7282   -1.7102   47.0373 H       1  ZINC001181473921    0.1500
     33 H33        -1.1521    2.4298   45.6579 H       1  ZINC001181473921    0.1000
     34 H34         0.5294    2.5119   46.2360 H       1  ZINC001181473921    0.1100
     35 H35         1.2198    0.9833   44.3940 H       1  ZINC001181473921    0.1100
     36 H36        -0.4592    0.9556   43.8037 H       1  ZINC001181473921    0.1000
     37 H37         1.0182    3.9281   45.1753 H       1  ZINC001181473921    0.4000
     38 H38         3.2909    4.8794   43.8049 H       1  ZINC001181473921    0.0700
     39 H39         2.7921    4.7438   42.0895 H       1  ZINC001181473921    0.0800
     40 H40         3.8839    7.0493   43.1703 H       1  ZINC001181473921    0.0900
     41 H41         2.7504    7.0575   41.7899 H       1  ZINC001181473921    0.0800
     42 H42         3.1603    9.1140   44.2620 H       1  ZINC001181473921    0.1400
     43 H43         1.7802    8.8839   45.3624 H       1  ZINC001181473921    0.1400
     44 H44         4.8072    9.0896   46.5859 H       1  ZINC001181473921    0.4100
     45 H45         4.0767    8.2613   47.8520 H       1  ZINC001181473921    0.4200
     46 H46        -0.0600    6.7193   44.4374 H       1  ZINC001181473921    0.0800
     47 H47         1.3717    6.2022   45.3821 H       1  ZINC001181473921    0.0800
@<TRIPOS>BOND
     1     1     2    1
     2     1    27    1
     3     1    28    1
     4     1    29    1
     5     2     9    1
     6     2     3    2
     7     3     4    1
     8     3    30    1
     9     4     5    1
    10     4     6    2
    11     5    31    1
    12     6     7    1
    13     6    32    1
    14     7     8    2
    15     7     9   am
    16     9    10    1
    17    10    11    1
    18    10    33    1
    19    10    34    1
    20    11    12    1
    21    11    35    1
    22    11    36    1
    23    12    13    2
    24    12    14   am
    25    14    15    1
    26    14    37    1
    27    15    16    1
    28    15    26    1
    29    15    17    1
    30    17    18    1
    31    17    38    1
    32    17    39    1
    33    18    19    1
    34    18    40    1
    35    18    41    1
    36    19    20    1
    37    19    21    1
    38    19    26    1
    39    21    22    1
    40    21    42    1
    41    21    43    1
    42    22    23   am
    43    22    24    2
    44    22    25    2
    45    23    44    1
    46    23    45    1
    47    26    46    1
    48    26    47    1
@<TRIPOS>SUBSTRUCTURE
     1 ZINC001181473921        1 TEMP              0 ****  ****    0 ROOT


##########                                Name:    ZINC000482187991
##########                DOCK_Rotatable_Bonds:                  11
##########                         Heavy_Atoms:                  29
##########                    Molecular_Weight:             407.414
##########                DOCK_Rotatable_Bonds:                  11
##########                       Formal_Charge:           0.0299996
##########                     HBond_Acceptors:                   8
##########                        HBond_Donors:                   1
##########                         Heavy_Atoms:                  29
##########                          Grid_Score:          -31.369686
##########                     Grid_vdw_energy:          -30.972357
##########                      Grid_es_energy:           -0.397329
##########           Internal_energy_repulsive:           11.267836

@<TRIPOS>MOLECULE
ZINC000482187991
 52 53 1 0 0
SMALL
USER_CHARGES


@<TRIPOS>ATOM
      1 C1          0.8753    3.5622   47.5381 C.3     1  ZINC000482187991    0.0200
      2 O2         -0.3100    3.1425   46.8589 O.3     1  ZINC000482187991   -0.3000
      3 C3         -1.1661    2.3420   47.5488 C.ar    1  ZINC000482187991    0.1400
      4 C4         -1.8607    2.8457   48.6312 C.ar    1  ZINC000482187991   -0.1700
      5 C5         -2.7421    2.0210   49.3404 C.ar    1  ZINC000482187991   -0.1000
      6 C6         -3.4828    2.5530   50.4916 C.2     1  ZINC000482187991    0.4000
      7 O7         -4.5553    2.0751   50.7961 O.2     1  ZINC000482187991   -0.4500
      8 C8         -2.9105    3.6925   51.2947 C.3     1  ZINC000482187991   -0.1500
      9 C9         -1.7075    3.1959   52.0991 C.3     1  ZINC000482187991   -0.1300
     10 C10        -1.6996    3.8592   53.4522 C.2     1  ZINC000482187991    0.5200
     11 O11        -1.0992    4.9006   53.6135 O.2     1  ZINC000482187991   -0.5200
     12 N12        -2.3593    3.2951   54.4832 N.am    1  ZINC000482187991   -0.7200
     13 C13        -2.3501    3.9391   55.7991 C.3     1  ZINC000482187991    0.1500
     14 H14        -2.5933    4.9958   55.6881 H       1  ZINC000482187991    0.1300
     15 C15        -0.9824    3.8005   56.4164 C.ar    1  ZINC000482187991   -0.1100
     16 C16        -0.4409    2.5454   56.6223 C.ar    1  ZINC000482187991   -0.1000
     17 C17         0.8136    2.4183   57.1887 C.ar    1  ZINC000482187991   -0.1200
     18 C18         1.5269    3.5464   57.5489 C.ar    1  ZINC000482187991   -0.1100
     19 C19         0.9857    4.8015   57.3422 C.ar    1  ZINC000482187991   -0.1200
     20 C20        -0.2670    4.9287   56.7719 C.ar    1  ZINC000482187991   -0.1000
     21 C21        -3.3877    3.2690   56.7021 C.3     1  ZINC000482187991    0.2500
     22 F22        -4.6054    3.9497   56.5980 F       1  ZINC000482187991   -0.1900
     23 F23        -3.5615    1.9388   56.3054 F       1  ZINC000482187991   -0.2000
     24 C24        -2.9162    0.6879   48.9492 C.ar    1  ZINC000482187991   -0.1900
     25 C25        -2.2181    0.1913   47.8658 C.ar    1  ZINC000482187991    0.1400
     26 O26        -2.3867   -1.1033   47.4848 O.3     1  ZINC000482187991   -0.3000
     27 C27        -1.4732   -2.0619   48.0220 C.3     1  ZINC000482187991    0.0200
     28 C28        -1.3458    1.0165   47.1593 C.ar    1  ZINC000482187991    0.0600
     29 O29        -0.6613    0.5247   46.0940 O.3     1  ZINC000482187991   -0.3100
     30 C30        -1.3097    0.5858   44.8220 C.3     1  ZINC000482187991    0.0400
     31 H31         1.4685    4.1940   46.8769 H       1  ZINC000482187991    0.1100
     32 H32         0.6026    4.1255   48.4305 H       1  ZINC000482187991    0.0600
     33 H33         1.4589    2.6873   47.8247 H       1  ZINC000482187991    0.0600
     34 H34        -1.7237    3.8744   48.9302 H       1  ZINC000482187991    0.1500
     35 H35        -2.5934    4.4886   50.6210 H       1  ZINC000482187991    0.1100
     36 H36        -3.6705    4.0745   51.9761 H       1  ZINC000482187991    0.1100
     37 H37        -1.7754    2.1152   52.2246 H       1  ZINC000482187991    0.1000
     38 H38        -0.7882    3.4429   51.5680 H       1  ZINC000482187991    0.1000
     39 H39        -2.8405    2.4628   54.3539 H       1  ZINC000482187991    0.4100
     40 H40        -0.9981    1.6641   56.3409 H       1  ZINC000482187991    0.1200
     41 H41         1.2365    1.4378   57.3502 H       1  ZINC000482187991    0.1300
     42 H42         2.5068    3.4471   57.9921 H       1  ZINC000482187991    0.1300
     43 H43         1.5428    5.6828   57.6240 H       1  ZINC000482187991    0.1300
     44 H44        -0.6898    5.9093   56.6105 H       1  ZINC000482187991    0.1300
     45 H45        -3.0424    3.2978   57.7356 H       1  ZINC000482187991    0.1200
     46 H46        -3.5950    0.0488   49.4942 H       1  ZINC000482187991    0.1500
     47 H47        -0.4568   -1.8000   47.7277 H       1  ZINC000482187991    0.0600
     48 H48        -1.5472   -2.0647   49.1095 H       1  ZINC000482187991    0.0600
     49 H49        -1.7186   -3.0523   47.6385 H       1  ZINC000482187991    0.1100
     50 H50        -2.2393    0.0180   44.8604 H       1  ZINC000482187991    0.0500
     51 H51        -1.5285    1.6247   44.5752 H       1  ZINC000482187991    0.0500
     52 H52        -0.6558    0.1613   44.0602 H       1  ZINC000482187991    0.1000
@<TRIPOS>BOND
     1     1     2    1
     2     1    31    1
     3     1    32    1
     4     1    33    1
     5     2     3    1
     6     3    28   ar
     7     3     4   ar
     8     4     5   ar
     9     4    34    1
    10     5     6    1
    11     5    24   ar
    12     6     7    2
    13     6     8    1
    14     8     9    1
    15     8    35    1
    16     8    36    1
    17     9    10    1
    18     9    37    1
    19     9    38    1
    20    10    11    2
    21    10    12   am
    22    12    13    1
    23    12    39    1
    24    13    14    1
    25    13    15    1
    26    13    21    1
    27    15    20   ar
    28    15    16   ar
    29    16    17   ar
    30    16    40    1
    31    17    18   ar
    32    17    41    1
    33    18    19   ar
    34    18    42    1
    35    19    20   ar
    36    19    43    1
    37    20    44    1
    38    21    22    1
    39    21    23    1
    40    21    45    1
    41    24    25   ar
    42    24    46    1
    43    25    26    1
    44    25    28   ar
    45    26    27    1
    46    27    47    1
    47    27    48    1
    48    27    49    1
    49    28    29    1
    50    29    30    1
    51    30    50    1
    52    30    51    1
    53    30    52    1
@<TRIPOS>SUBSTRUCTURE
     1 ZINC000482187991        1 TEMP              0 ****  ****    0 ROOT


##########                                Name:    ZINC000486710336
##########                DOCK_Rotatable_Bonds:                   6
##########                         Heavy_Atoms:                  31
##########                    Molecular_Weight:             420.555
##########                DOCK_Rotatable_Bonds:                   6
##########                       Formal_Charge:         1.49012e-07
##########                     HBond_Acceptors:                   6
##########                        HBond_Donors:                   1
##########                         Heavy_Atoms:                  31
##########                          Grid_Score:          -31.325953
##########                     Grid_vdw_energy:          -30.824150
##########                      Grid_es_energy:           -0.501802
##########           Internal_energy_repulsive:           51.416740

@<TRIPOS>MOLECULE
ZINC000486710336
 63 67 1 0 0
SMALL
USER_CHARGES


@<TRIPOS>ATOM
      1 C1         -5.3845    4.1576   52.0280 C.3     1  ZINC000486710336    0.1000
      2 N2         -5.2362    3.6842   53.4064 N.pl3   1  ZINC000486710336   -0.3900
      3 N3         -4.2334    4.0662   54.3067 N.2     1  ZINC000486710336   -0.2800
      4 C4         -4.4302    3.4363   55.4366 C.2     1  ZINC000486710336    0.1000
      5 C5         -3.5788    3.5598   56.6740 C.3     1  ZINC000486710336   -0.0100
      6 C6         -2.3633    2.6034   56.5932 C.3     1  ZINC000486710336   -0.1200
      7 C7         -1.3436    3.2647   57.5535 C.3     1  ZINC000486710336   -0.1200
      8 C8         -1.5281    4.7780   57.3173 C.3     1  ZINC000486710336   -0.1200
      9 C9         -2.9493    4.9656   56.7581 C.3     1  ZINC000486710336   -0.1100
     10 C10        -5.5630    2.6300   55.3020 C.2     1  ZINC000486710336   -0.2600
     11 C11        -6.0499    2.8009   54.0413 C.2     1  ZINC000486710336    0.3000
     12 N12        -7.1714    2.1786   53.5004 N.am    1  ZINC000486710336   -0.6200
     13 C13        -8.3807    2.3573   54.0679 C.2     1  ZINC000486710336    0.5100
     14 O14        -8.4917    3.0597   55.0518 O.2     1  ZINC000486710336   -0.4800
     15 C15        -9.5839    1.6912   53.4866 C.2     1  ZINC000486710336    0.5300
     16 O16        -9.7387    1.6607   52.2832 O.2     1  ZINC000486710336   -0.5100
     17 N17       -10.4982    1.1239   54.2982 N.am    1  ZINC000486710336   -0.5800
     18 C18       -10.4462    1.0874   55.7708 C.3     1  ZINC000486710336    0.1000
     19 C19       -11.6869    0.3025   56.2514 C.3     1  ZINC000486710336   -0.0600
     20 H20       -12.5002    0.9825   56.5051 H       1  ZINC000486710336    0.1000
     21 C21       -11.3416   -0.5762   57.4260 C.ar    1  ZINC000486710336   -0.0700
     22 C22       -12.1519   -1.6486   57.7488 C.ar    1  ZINC000486710336   -0.1100
     23 C23       -11.8351   -2.4546   58.8262 C.ar    1  ZINC000486710336   -0.1200
     24 C24       -10.7077   -2.1885   59.5805 C.ar    1  ZINC000486710336   -0.1200
     25 C25        -9.8969   -1.1166   59.2573 C.ar    1  ZINC000486710336   -0.1200
     26 C26       -10.2113   -0.3132   58.1772 C.ar    1  ZINC000486710336   -0.1100
     27 C27       -12.0533   -0.5560   55.0020 C.3     1  ZINC000486710336   -0.0800
     28 H28       -13.0988   -0.8641   54.9937 H       1  ZINC000486710336    0.1100
     29 C29       -11.0937   -1.7478   54.9942 C.3     1  ZINC000486710336   -0.1100
     30 C30       -11.0779   -2.4186   53.6227 C.3     1  ZINC000486710336   -0.1200
     31 C31       -10.5721   -1.4077   52.5880 C.3     1  ZINC000486710336   -0.1100
     32 C32       -11.5618   -0.2443   52.5252 C.3     1  ZINC000486710336   -0.1400
     33 C33       -11.7222    0.4401   53.8724 C.3     1  ZINC000486710336    0.1400
     34 H34       -12.5151    1.1838   53.7919 H       1  ZINC000486710336    0.0800
     35 H35        -6.0074    5.0520   52.0161 H       1  ZINC000486710336    0.0800
     36 H36        -4.4028    4.3928   51.6170 H       1  ZINC000486710336    0.1000
     37 H37        -5.8539    3.3800   51.4254 H       1  ZINC000486710336    0.0800
     38 H38        -4.1710    3.3530   57.5655 H       1  ZINC000486710336    0.0900
     39 H39        -2.6322    1.6064   56.9424 H       1  ZINC000486710336    0.0700
     40 H40        -1.9687    2.5648   55.5778 H       1  ZINC000486710336    0.0800
     41 H41        -1.5728    3.0094   58.5881 H       1  ZINC000486710336    0.0700
     42 H42        -0.3281    2.9601   57.3003 H       1  ZINC000486710336    0.0700
     43 H43        -1.4227    5.3183   58.2581 H       1  ZINC000486710336    0.0600
     44 H44        -0.7930    5.1358   56.5965 H       1  ZINC000486710336    0.0600
     45 H45        -2.9038    5.4144   55.7658 H       1  ZINC000486710336    0.0700
     46 H46        -3.5336    5.5970   57.4275 H       1  ZINC000486710336    0.0700
     47 H47        -5.9807    1.9881   56.0635 H       1  ZINC000486710336    0.1700
     48 H48        -7.0826    1.6165   52.7149 H       1  ZINC000486710336    0.4200
     49 H49        -9.5377    0.5814   56.0976 H       1  ZINC000486710336    0.0900
     50 H50       -10.4721    2.1020   56.1682 H       1  ZINC000486710336    0.0800
     51 H51       -13.0326   -1.8565   57.1593 H       1  ZINC000486710336    0.1200
     52 H52       -12.4686   -3.2921   59.0787 H       1  ZINC000486710336    0.1200
     53 H53       -10.4606   -2.8179   60.4228 H       1  ZINC000486710336    0.1200
     54 H54        -9.0163   -0.9085   59.8469 H       1  ZINC000486710336    0.1200
     55 H55        -9.5779    0.5243   57.9247 H       1  ZINC000486710336    0.1200
     56 H56       -10.0889   -1.4013   55.2361 H       1  ZINC000486710336    0.0700
     57 H57       -11.4136   -2.4712   55.7441 H       1  ZINC000486710336    0.0700
     58 H58       -10.4131   -3.2821   53.6456 H       1  ZINC000486710336    0.0600
     59 H59       -12.0866   -2.7374   53.3598 H       1  ZINC000486710336    0.0600
     60 H60        -9.5904   -1.0388   52.8848 H       1  ZINC000486710336    0.0500
     61 H61       -10.5049   -1.8854   51.6106 H       1  ZINC000486710336    0.0600
     62 H62       -11.2093    0.4854   51.7962 H       1  ZINC000486710336    0.1000
     63 H63       -12.5353   -0.6202   52.2106 H       1  ZINC000486710336    0.0700
@<TRIPOS>BOND
     1     1     2    1
     2     1    35    1
     3     1    36    1
     4     1    37    1
     5     2    11    1
     6     2     3    1
     7     3     4    2
     8     4     5    1
     9     4    10    1
    10     5     9    1
    11     5     6    1
    12     5    38    1
    13     6     7    1
    14     6    39    1
    15     6    40    1
    16     7     8    1
    17     7    41    1
    18     7    42    1
    19     8     9    1
    20     8    43    1
    21     8    44    1
    22     9    45    1
    23     9    46    1
    24    10    11    2
    25    10    47    1
    26    11    12    1
    27    12    13   am
    28    12    48    1
    29    13    14    2
    30    13    15    1
    31    15    16    2
    32    15    17   am
    33    17    33    1
    34    17    18    1
    35    18    19    1
    36    18    49    1
    37    18    50    1
    38    19    20    1
    39    19    21    1
    40    19    27    1
    41    21    26   ar
    42    21    22   ar
    43    22    23   ar
    44    22    51    1
    45    23    24   ar
    46    23    52    1
    47    24    25   ar
    48    24    53    1
    49    25    26   ar
    50    25    54    1
    51    26    55    1
    52    27    28    1
    53    27    33    1
    54    27    29    1
    55    29    30    1
    56    29    56    1
    57    29    57    1
    58    30    31    1
    59    30    58    1
    60    30    59    1
    61    31    32    1
    62    31    60    1
    63    31    61    1
    64    32    33    1
    65    32    62    1
    66    32    63    1
    67    33    34    1
@<TRIPOS>SUBSTRUCTURE
     1 ZINC000486710336        1 TEMP              0 ****  ****    0 ROOT


##########                                Name:    ZINC000119180466
##########                DOCK_Rotatable_Bonds:                  10
##########                         Heavy_Atoms:                  23
##########                    Molecular_Weight:             350.405
##########                DOCK_Rotatable_Bonds:                  10
##########                       Formal_Charge:           0.0299997
##########                     HBond_Acceptors:                   8
##########                        HBond_Donors:                   3
##########                         Heavy_Atoms:                  23
##########                          Grid_Score:          -31.287596
##########                     Grid_vdw_energy:          -30.314173
##########                      Grid_es_energy:           -0.973423
##########           Internal_energy_repulsive:           10.542534

@<TRIPOS>MOLECULE
ZINC000119180466
 44 44 1 0 0
SMALL
USER_CHARGES


@<TRIPOS>ATOM
      1 C1         -2.3312    0.3682   44.6715 C.3     1  ZINC000119180466   -0.1300
      2 S2         -2.7420    0.3206   46.4377 S.3     1  ZINC000119180466   -0.2200
      3 C3         -1.1145    0.2213   47.2326 C.3     1  ZINC000119180466   -0.0700
      4 H4         -0.3563   -0.0005   46.4816 H       1  ZINC000119180466    0.1100
      5 C5         -1.1284   -0.8879   48.2864 C.3     1  ZINC000119180466    0.0800
      6 O6         -1.4092   -2.1396   47.6567 O.3     1  ZINC000119180466   -0.5600
      7 C7         -0.7922    1.5580   47.9035 C.3     1  ZINC000119180466    0.1900
      8 H8          0.0880    1.4441   48.5363 H       1  ZINC000119180466    0.1000
      9 C9         -0.5157    2.6134   46.8308 C.3     1  ZINC000119180466   -0.1700
     10 N10        -1.9310    1.9806   48.7223 N.am    1  ZINC000119180466   -0.7200
     11 C11        -1.7288    2.7400   49.8173 C.2     1  ZINC000119180466    0.7100
     12 O12        -0.6013    3.0755   50.1247 O.2     1  ZINC000119180466   -0.6000
     13 N13        -2.7765    3.1275   50.5715 N.am    1  ZINC000119180466   -0.7400
     14 C14        -2.5568    3.9543   51.7608 C.3     1  ZINC000119180466    0.2000
     15 H15        -1.6190    3.6661   52.2356 H       1  ZINC000119180466    0.1000
     16 C16        -2.4901    5.4273   51.3525 C.3     1  ZINC000119180466   -0.1600
     17 C17        -3.6933    3.7525   52.7297 C.ar    1  ZINC000119180466   -0.0600
     18 C18        -4.9755    3.5436   52.2573 C.ar    1  ZINC000119180466   -0.1100
     19 C19        -6.0179    3.3586   53.1462 C.ar    1  ZINC000119180466   -0.0600
     20 C20        -5.7780    3.3819   54.5073 C.ar    1  ZINC000119180466   -0.1800
     21 C21        -6.9145    3.1808   55.4763 C.3     1  ZINC000119180466    0.5100
     22 F22        -7.5098    1.9360   55.2448 F       1  ZINC000119180466   -0.1800
     23 F23        -6.4247    3.2271   56.7858 F       1  ZINC000119180466   -0.1800
     24 F24        -7.8643    4.1923   55.2976 F       1  ZINC000119180466   -0.1800
     25 C25        -4.4956    3.5895   54.9797 C.ar    1  ZINC000119180466   -0.0600
     26 C26        -3.4525    3.7708   54.0908 C.ar    1  ZINC000119180466   -0.1100
     27 H27        -1.7871   -0.5366   44.4005 H       1  ZINC000119180466    0.0800
     28 H28        -3.2490    0.4293   44.0865 H       1  ZINC000119180466    0.1000
     29 H29        -1.7107    1.2405   44.4661 H       1  ZINC000119180466    0.0800
     30 H30        -0.1552   -0.9372   48.7748 H       1  ZINC000119180466    0.0500
     31 H31        -1.8972   -0.6741   49.0288 H       1  ZINC000119180466    0.0600
     32 H32        -0.7574   -2.4001   46.9915 H       1  ZINC000119180466    0.3800
     33 H33        -1.3958    2.7274   46.1978 H       1  ZINC000119180466    0.0700
     34 H34        -0.2860    3.5657   47.3087 H       1  ZINC000119180466    0.0700
     35 H35         0.3317    2.2990   46.2215 H       1  ZINC000119180466    0.0700
     36 H36        -2.8307    1.7140   48.4764 H       1  ZINC000119180466    0.4100
     37 H37        -3.6758    2.8588   50.3269 H       1  ZINC000119180466    0.4000
     38 H38        -2.3267    6.0425   52.2372 H       1  ZINC000119180466    0.0700
     39 H39        -1.6681    5.5732   50.6516 H       1  ZINC000119180466    0.0700
     40 H40        -3.4280    5.7156   50.8777 H       1  ZINC000119180466    0.0600
     41 H41        -5.1629    3.5253   51.1939 H       1  ZINC000119180466    0.1300
     42 H42        -7.0198    3.1960   52.7771 H       1  ZINC000119180466    0.1400
     43 H43        -4.3081    3.6076   56.0431 H       1  ZINC000119180466    0.1400
     44 H44        -2.4505    3.9330   54.4598 H       1  ZINC000119180466    0.1400
@<TRIPOS>BOND
     1     1     2    1
     2     1    27    1
     3     1    28    1
     4     1    29    1
     5     2     3    1
     6     3     4    1
     7     3     5    1
     8     3     7    1
     9     5     6    1
    10     5    30    1
    11     5    31    1
    12     6    32    1
    13     7     8    1
    14     7     9    1
    15     7    10    1
    16     9    33    1
    17     9    34    1
    18     9    35    1
    19    10    11   am
    20    10    36    1
    21    11    12    2
    22    11    13   am
    23    13    14    1
    24    13    37    1
    25    14    15    1
    26    14    16    1
    27    14    17    1
    28    16    38    1
    29    16    39    1
    30    16    40    1
    31    17    26   ar
    32    17    18   ar
    33    18    19   ar
    34    18    41    1
    35    19    20   ar
    36    19    42    1
    37    20    21    1
    38    20    25   ar
    39    21    22    1
    40    21    23    1
    41    21    24    1
    42    25    26   ar
    43    25    43    1
    44    26    44    1
@<TRIPOS>SUBSTRUCTURE
     1 ZINC000119180466        1 TEMP              0 ****  ****    0 ROOT


##########                                Name:    ZINC000673213454
##########                DOCK_Rotatable_Bonds:                   7
##########                         Heavy_Atoms:                  26
##########                    Molecular_Weight:             360.453
##########                DOCK_Rotatable_Bonds:                   7
##########                       Formal_Charge:          -0.0100001
##########                     HBond_Acceptors:                   6
##########                        HBond_Donors:                   1
##########                         Heavy_Atoms:                  26
##########                          Grid_Score:          -31.271832
##########                     Grid_vdw_energy:          -28.100084
##########                      Grid_es_energy:           -3.171746
##########           Internal_energy_repulsive:           21.222828

@<TRIPOS>MOLECULE
ZINC000673213454
 54 56 1 0 0
SMALL
USER_CHARGES


@<TRIPOS>ATOM
      1 C1          1.2153    5.6049   46.4276 C.3     1  ZINC000673213454   -0.1700
      2 C2          1.5172    4.9524   45.0770 C.3     1  ZINC000673213454    0.1400
      3 H3          2.5254    4.5383   45.0909 H       1  ZINC000673213454    0.0900
      4 C4          1.4121    6.0018   43.9687 C.3     1  ZINC000673213454   -0.1200
      5 C5          2.3925    7.1419   44.2513 C.3     1  ZINC000673213454   -0.1300
      6 H6          2.1367    7.6410   45.1858 H       1  ZINC000673213454    0.0800
      7 C7          2.3983    8.1543   43.0800 C.3     1  ZINC000673213454   -0.1500
      8 C8          3.9053    8.4928   42.9509 C.3     1  ZINC000673213454    0.0500
      9 O9          4.5577    7.2335   43.2209 O.3     1  ZINC000673213454   -0.3800
     10 C10         3.8380    6.6101   44.3019 C.3     1  ZINC000673213454    0.0500
     11 N11         0.5519    3.8792   44.8266 N.am    1  ZINC000673213454   -0.6900
     12 C12         0.7923    2.6355   45.2871 C.2     1  ZINC000673213454    0.5100
     13 O13         1.8076    2.4051   45.9105 O.2     1  ZINC000673213454   -0.5100
     14 C14        -0.1916    1.5404   45.0301 C.2     1  ZINC000673213454    0.5000
     15 O15        -0.0992    0.8650   44.0261 O.2     1  ZINC000673213454   -0.5200
     16 N16        -1.1814    1.3027   45.9134 N.am    1  ZINC000673213454   -0.5800
     17 C17        -2.1373    0.2150   45.6325 C.3     1  ZINC000673213454    0.1100
     18 C18        -2.4496   -0.5866   46.9046 C.3     1  ZINC000673213454   -0.1700
     19 C19        -1.1806   -0.7726   47.7118 C.3     1  ZINC000673213454    0.0800
     20 O20        -1.0667    0.2999   48.6379 O.3     1  ZINC000673213454   -0.3800
     21 C21        -0.4512    1.4716   48.2466 C.3     1  ZINC000673213454    0.1500
     22 H22         0.5566    1.2524   47.8939 H       1  ZINC000673213454    0.0600
     23 C23        -0.3789    2.4165   49.4183 C.ar    1  ZINC000673213454   -0.0800
     24 C24         0.7585    3.1741   49.6262 C.ar    1  ZINC000673213454   -0.0900
     25 C25         0.8248    4.0409   50.7010 C.ar    1  ZINC000673213454   -0.1300
     26 C26        -0.2464    4.1503   51.5678 C.ar    1  ZINC000673213454   -0.1200
     27 C27        -1.3842    3.3934   51.3594 C.ar    1  ZINC000673213454   -0.1300
     28 C28        -1.4522    2.5297   50.2821 C.ar    1  ZINC000673213454   -0.0900
     29 C29        -1.2629    2.1228   47.1079 C.3     1  ZINC000673213454    0.0700
     30 H30         0.2071    6.0191   46.4138 H       1  ZINC000673213454    0.0600
     31 H31         1.2902    4.8573   47.2173 H       1  ZINC000673213454    0.0600
     32 H32         1.9335    6.4035   46.6140 H       1  ZINC000673213454    0.0700
     33 H33         1.6546    5.5432   43.0100 H       1  ZINC000673213454    0.0800
     34 H34         0.3963    6.3958   43.9364 H       1  ZINC000673213454    0.0900
     35 H35         2.0232    7.6939   42.1660 H       1  ZINC000673213454    0.0800
     36 H36         1.8201    9.0434   43.3316 H       1  ZINC000673213454    0.0800
     37 H37         4.1364    8.8364   41.9427 H       1  ZINC000673213454    0.0900
     38 H38         4.1952    9.2412   43.6885 H       1  ZINC000673213454    0.0600
     39 H39         4.2993    6.8721   45.2541 H       1  ZINC000673213454    0.0600
     40 H40         3.8393    5.5278   44.1726 H       1  ZINC000673213454    0.0900
     41 H41        -0.2603    4.0636   44.3294 H       1  ZINC000673213454    0.4100
     42 H42        -3.0613    0.6424   45.2430 H       1  ZINC000673213454    0.0800
     43 H43        -1.7098   -0.4528   44.8845 H       1  ZINC000673213454    0.0900
     44 H44        -3.1843   -0.0472   47.5023 H       1  ZINC000673213454    0.0800
     45 H45        -2.8510   -1.5619   46.6297 H       1  ZINC000673213454    0.0900
     46 H46        -1.2263   -1.7184   48.2517 H       1  ZINC000673213454    0.1000
     47 H47        -0.3191   -0.7717   47.0439 H       1  ZINC000673213454    0.0500
     48 H48         1.5955    3.0886   48.9490 H       1  ZINC000673213454    0.1300
     49 H49         1.7138    4.6322   50.8638 H       1  ZINC000673213454    0.1200
     50 H50        -0.1944    4.8269   52.4079 H       1  ZINC000673213454    0.1200
     51 H51        -2.2211    3.4786   52.0367 H       1  ZINC000673213454    0.1200
     52 H52        -2.3411    1.9385   50.1193 H       1  ZINC000673213454    0.1300
     53 H53        -0.8593    3.1126   46.8943 H       1  ZINC000673213454    0.1200
     54 H54        -2.3059    2.2138   47.4116 H       1  ZINC000673213454    0.0800
@<TRIPOS>BOND
     1     1     2    1
     2     1    30    1
     3     1    31    1
     4     1    32    1
     5     2     3    1
     6     2     4    1
     7     2    11    1
     8     4     5    1
     9     4    33    1
    10     4    34    1
    11     5     6    1
    12     5    10    1
    13     5     7    1
    14     7     8    1
    15     7    35    1
    16     7    36    1
    17     8     9    1
    18     8    37    1
    19     8    38    1
    20     9    10    1
    21    10    39    1
    22    10    40    1
    23    11    12   am
    24    11    41    1
    25    12    13    2
    26    12    14    1
    27    14    15    2
    28    14    16   am
    29    16    29    1
    30    16    17    1
    31    17    18    1
    32    17    42    1
    33    17    43    1
    34    18    19    1
    35    18    44    1
    36    18    45    1
    37    19    20    1
    38    19    46    1
    39    19    47    1
    40    20    21    1
    41    21    22    1
    42    21    23    1
    43    21    29    1
    44    23    28   ar
    45    23    24   ar
    46    24    25   ar
    47    24    48    1
    48    25    26   ar
    49    25    49    1
    50    26    27   ar
    51    26    50    1
    52    27    28   ar
    53    27    51    1
    54    28    52    1
    55    29    53    1
    56    29    54    1
@<TRIPOS>SUBSTRUCTURE
     1 ZINC000673213454        1 TEMP              0 ****  ****    0 ROOT


##########                                Name:    ZINC000766421809
##########                DOCK_Rotatable_Bonds:                   7
##########                         Heavy_Atoms:                  26
##########                    Molecular_Weight:             358.372
##########                DOCK_Rotatable_Bonds:                   7
##########                       Formal_Charge:         4.61936e-07
##########                     HBond_Acceptors:                   8
##########                        HBond_Donors:                   0
##########                         Heavy_Atoms:                  26
##########                          Grid_Score:          -31.244825
##########                     Grid_vdw_energy:          -30.645176
##########                      Grid_es_energy:           -0.599650
##########           Internal_energy_repulsive:            4.410099

@<TRIPOS>MOLECULE
ZINC000766421809
 45 47 1 0 0
SMALL
USER_CHARGES


@<TRIPOS>ATOM
      1 C1         -1.4680   -2.0737   48.4473 C.3     1  ZINC000766421809   -0.0700
      2 C2         -1.3208   -0.9749   47.4264 C.2     1  ZINC000766421809    0.0700
      3 N3         -2.0217   -0.8486   46.3289 N.2     1  ZINC000766421809   -0.2900
      4 N4         -1.5801    0.2986   45.6573 N.pl3   1  ZINC000766421809   -0.3700
      5 C5         -2.0993    0.8058   44.3846 C.3     1  ZINC000766421809    0.1000
      6 C6         -0.5918    0.8541   46.3894 C.2     1  ZINC000766421809    0.0700
      7 C7          0.1738    2.1054   46.0444 C.3     1  ZINC000766421809    0.1400
      8 O8         -0.5197    3.2613   46.5839 O.3     1  ZINC000766421809   -0.3400
      9 C9          0.1168    4.4411   46.5143 C.2     1  ZINC000766421809    0.4700
     10 O10         1.1313    4.5428   45.8659 O.2     1  ZINC000766421809   -0.5000
     11 C11        -0.4340    5.6385   47.2449 C.3     1  ZINC000766421809   -0.1100
     12 C12        -0.1070    5.5216   48.7350 C.3     1  ZINC000766421809   -0.0200
     13 C13        -1.2881    4.9345   49.4639 C.2     1  ZINC000766421809    0.1900
     14 N14        -2.3537    5.5811   49.8662 N.2     1  ZINC000766421809   -0.4700
     15 C15        -3.1359    4.6550   50.4656 C.2     1  ZINC000766421809    0.2200
     16 C16        -4.4615    4.8916   51.0888 C.ar    1  ZINC000766421809   -0.0300
     17 C17        -5.1416    6.0846   50.8526 C.ar    1  ZINC000766421809   -0.0500
     18 C18        -6.3743    6.3004   51.4337 C.ar    1  ZINC000766421809   -0.1500
     19 C19        -6.9356    5.3331   52.2515 C.ar    1  ZINC000766421809    0.1200
     20 F20        -8.1427    5.5485   52.8189 F       1  ZINC000766421809   -0.1300
     21 C21        -6.2628    4.1450   52.4887 C.ar    1  ZINC000766421809   -0.1200
     22 C22        -6.8788    3.0961   53.3784 C.3     1  ZINC000766421809   -0.1200
     23 C23        -5.0324    3.9189   51.9075 C.ar    1  ZINC000766421809   -0.0600
     24 N24        -2.5052    3.5116   50.3926 N.2     1  ZINC000766421809   -0.3700
     25 O25        -1.4476    3.6550   49.8163 O.3     1  ZINC000766421809    0.0900
     26 C26        -0.4154    0.0892   47.4916 C.2     1  ZINC000766421809   -0.2400
     27 H27        -2.2004   -1.7765   49.1979 H       1  ZINC000766421809    0.0800
     28 H28        -1.8033   -2.9858   47.9537 H       1  ZINC000766421809    0.0700
     29 H29        -0.5067   -2.2534   48.9289 H       1  ZINC000766421809    0.0800
     30 H30        -2.9214    1.4952   44.5765 H       1  ZINC000766421809    0.0800
     31 H31        -1.3051    1.3271   43.8501 H       1  ZINC000766421809    0.0900
     32 H32        -2.4575   -0.0277   43.7803 H       1  ZINC000766421809    0.0900
     33 H33         1.1742    2.0490   46.4733 H       1  ZINC000766421809    0.0900
     34 H34         0.2478    2.1989   44.9609 H       1  ZINC000766421809    0.0900
     35 H35         0.0158    6.5471   46.8445 H       1  ZINC000766421809    0.1200
     36 H36        -1.5151    5.6794   47.1124 H       1  ZINC000766421809    0.1200
     37 H37         0.7599    4.8742   48.8670 H       1  ZINC000766421809    0.1200
     38 H38         0.1134    6.5104   49.1373 H       1  ZINC000766421809    0.1200
     39 H39        -4.7044    6.8394   50.2157 H       1  ZINC000766421809    0.1500
     40 H40        -6.9022    7.2247   51.2511 H       1  ZINC000766421809    0.1500
     41 H41        -7.4862    2.4203   52.7765 H       1  ZINC000766421809    0.0800
     42 H42        -6.0895    2.5311   53.8742 H       1  ZINC000766421809    0.0800
     43 H43        -7.5062    3.5784   54.1280 H       1  ZINC000766421809    0.0700
     44 H44        -4.5087    2.9928   52.0930 H       1  ZINC000766421809    0.1400
     45 H45         0.3020    0.2658   48.2794 H       1  ZINC000766421809    0.1500
@<TRIPOS>BOND
     1     1     2    1
     2     1    27    1
     3     1    28    1
     4     1    29    1
     5     2    26    1
     6     2     3    2
     7     3     4    1
     8     4     5    1
     9     4     6    1
    10     5    30    1
    11     5    31    1
    12     5    32    1
    13     6     7    1
    14     6    26    2
    15     7     8    1
    16     7    33    1
    17     7    34    1
    18     8     9    1
    19     9    10    2
    20     9    11    1
    21    11    12    1
    22    11    35    1
    23    11    36    1
    24    12    13    1
    25    12    37    1
    26    12    38    1
    27    13    25    1
    28    13    14    2
    29    14    15    1
    30    15    16    1
    31    15    24    2
    32    16    23   ar
    33    16    17   ar
    34    17    18   ar
    35    17    39    1
    36    18    19   ar
    37    18    40    1
    38    19    20    1
    39    19    21   ar
    40    21    22    1
    41    21    23   ar
    42    22    41    1
    43    22    42    1
    44    22    43    1
    45    23    44    1
    46    24    25    1
    47    26    45    1
@<TRIPOS>SUBSTRUCTURE
     1 ZINC000766421809        1 TEMP              0 ****  ****    0 ROOT


##########                                Name:    ZINC001004075025
##########                DOCK_Rotatable_Bonds:                   8
##########                         Heavy_Atoms:                  25
##########                    Molecular_Weight:              349.43
##########                DOCK_Rotatable_Bonds:                   8
##########                       Formal_Charge:         -0.00999999
##########                     HBond_Acceptors:                   7
##########                        HBond_Donors:                   1
##########                         Heavy_Atoms:                  25
##########                          Grid_Score:          -31.228720
##########                     Grid_vdw_energy:          -30.531364
##########                      Grid_es_energy:           -0.697354
##########           Internal_energy_repulsive:           16.100182

@<TRIPOS>MOLECULE
ZINC001004075025
 52 54 1 0 0
SMALL
USER_CHARGES


@<TRIPOS>ATOM
      1 C1         -5.2468    3.1710   56.2391 C.3     1  ZINC001004075025   -0.1500
      2 C2         -4.4398    4.1824   57.0557 C.3     1  ZINC001004075025   -0.1200
      3 C3         -2.9759    4.1437   56.6123 C.3     1  ZINC001004075025    0.0800
      4 H4         -2.4662    5.0594   56.9116 H       1  ZINC001004075025    0.0700
      5 C5         -2.2630    2.9087   57.2185 C.3     1  ZINC001004075025   -0.1500
      6 C6         -1.1126    2.7010   56.1959 C.3     1  ZINC001004075025   -0.1400
      7 C7         -1.7740    3.1276   54.8677 C.3     1  ZINC001004075025    0.0700
      8 H8         -2.1171    2.2464   54.3257 H       1  ZINC001004075025    0.1100
      9 C9         -0.7847    3.8921   54.0264 C.2     1  ZINC001004075025    0.5300
     10 O10         0.1317    4.4844   54.5558 O.2     1  ZINC001004075025   -0.5200
     11 N11        -0.9183    3.9178   52.6855 N.am    1  ZINC001004075025   -0.6500
     12 C12        -0.1866    4.5181   51.5597 C.3     1  ZINC001004075025    0.1100
     13 C13        -1.5076    4.5296   50.7780 C.3     1  ZINC001004075025   -0.1400
     14 C14        -1.3675    4.1445   49.3039 C.3     1  ZINC001004075025    0.1300
     15 N15        -0.7694    2.8110   49.2024 N.am    1  ZINC001004075025   -0.7200
     16 C16        -0.0621    2.4713   48.1064 C.2     1  ZINC001004075025    0.6000
     17 O17         0.0807    3.2722   47.2026 O.2     1  ZINC001004075025   -0.5300
     18 C18         0.5382    1.1290   48.0036 C.2     1  ZINC001004075025   -0.2700
     19 C19        -0.0934   -0.0838   47.8735 C.2     1  ZINC001004075025    0.0700
     20 C20        -1.5793   -0.3257   47.8052 C.3     1  ZINC001004075025   -0.0300
     21 C21        -2.1163    0.1745   46.4627 C.3     1  ZINC001004075025   -0.1500
     22 C22        -1.8588   -1.8240   47.9399 C.3     1  ZINC001004075025   -0.1500
     23 O23         0.8707   -1.0055   47.8196 O.3     1  ZINC001004075025    0.1000
     24 N24         1.9800   -0.5370   47.8967 N.2     1  ZINC001004075025   -0.3500
     25 C25         1.9617    0.7582   48.0085 C.2     1  ZINC001004075025    0.0200
     26 C26        -1.8560    3.3525   51.7037 C.3     1  ZINC001004075025    0.1100
     27 O27        -2.8904    3.9678   55.1892 O.3     1  ZINC001004075025   -0.3400
     28 H28        -6.2897    3.1985   56.5550 H       1  ZINC001004075025    0.0600
     29 H29        -5.1809    3.4234   55.1808 H       1  ZINC001004075025    0.0500
     30 H30        -4.8448    2.1707   56.3998 H       1  ZINC001004075025    0.0600
     31 H31        -4.8418    5.1827   56.8950 H       1  ZINC001004075025    0.0800
     32 H32        -4.5056    3.9300   58.1140 H       1  ZINC001004075025    0.0700
     33 H33        -1.8709    3.1295   58.2113 H       1  ZINC001004075025    0.0900
     34 H34        -2.9270    2.0448   57.2435 H       1  ZINC001004075025    0.0900
     35 H35        -0.2641    3.3437   56.4307 H       1  ZINC001004075025    0.0800
     36 H36        -0.8098    1.6546   56.1598 H       1  ZINC001004075025    0.0900
     37 H37         0.1992    5.5145   51.7748 H       1  ZINC001004075025    0.0900
     38 H38         0.5664    3.8576   51.1298 H       1  ZINC001004075025    0.0900
     39 H39        -2.1116    5.4234   50.9343 H       1  ZINC001004075025    0.1100
     40 H40        -2.3514    4.1380   48.8349 H       1  ZINC001004075025    0.0800
     41 H41        -0.7287    4.8686   48.7982 H       1  ZINC001004075025    0.0800
     42 H42        -0.8823    2.1726   49.9239 H       1  ZINC001004075025    0.4000
     43 H43        -2.0724    0.2102   48.6162 H       1  ZINC001004075025    0.1300
     44 H44        -1.6233   -0.3613   45.6517 H       1  ZINC001004075025    0.0600
     45 H45        -3.1911   -0.0004   46.4134 H       1  ZINC001004075025    0.0700
     46 H46        -1.9173    1.2419   46.3668 H       1  ZINC001004075025    0.0600
     47 H47        -1.3658   -2.3599   47.1289 H       1  ZINC001004075025    0.0600
     48 H48        -1.4762   -2.1804   48.8963 H       1  ZINC001004075025    0.0600
     49 H49        -2.9335   -1.9990   47.8905 H       1  ZINC001004075025    0.0700
     50 H50         2.8107    1.4203   48.0936 H       1  ZINC001004075025    0.2000
     51 H51        -1.5464    2.3843   51.3101 H       1  ZINC001004075025    0.0900
     52 H52        -2.8920    3.3586   52.0425 H       1  ZINC001004075025    0.0800
@<TRIPOS>BOND
     1     1     2    1
     2     1    28    1
     3     1    29    1
     4     1    30    1
     5     2     3    1
     6     2    31    1
     7     2    32    1
     8     3     4    1
     9     3    27    1
    10     3     5    1
    11     5     6    1
    12     5    33    1
    13     5    34    1
    14     6     7    1
    15     6    35    1
    16     6    36    1
    17     7     8    1
    18     7     9    1
    19     7    27    1
    20     9    10    2
    21     9    11   am
    22    11    26    1
    23    11    12    1
    24    12    13    1
    25    12    37    1
    26    12    38    1
    27    13    14    1
    28    13    26    1
    29    13    39    1
    30    14    15    1
    31    14    40    1
    32    14    41    1
    33    15    16   am
    34    15    42    1
    35    16    17    2
    36    16    18    1
    37    18    25    1
    38    18    19    2
    39    19    20    1
    40    19    23    1
    41    20    21    1
    42    20    22    1
    43    20    43    1
    44    21    44    1
    45    21    45    1
    46    21    46    1
    47    22    47    1
    48    22    48    1
    49    22    49    1
    50    23    24    1
    51    24    25    2
    52    25    50    1
    53    26    51    1
    54    26    52    1
@<TRIPOS>SUBSTRUCTURE
     1 ZINC001004075025        1 TEMP              0 ****  ****    0 ROOT


##########                                Name:    ZINC000179496896
##########                DOCK_Rotatable_Bonds:                   8
##########                         Heavy_Atoms:                  27
##########                    Molecular_Weight:             396.504
##########                DOCK_Rotatable_Bonds:                   8
##########                       Formal_Charge:          0.00999944
##########                     HBond_Acceptors:                   8
##########                        HBond_Donors:                   1
##########                         Heavy_Atoms:                  27
##########                          Grid_Score:          -31.200649
##########                     Grid_vdw_energy:          -30.680651
##########                      Grid_es_energy:           -0.519999
##########           Internal_energy_repulsive:           25.869408

@<TRIPOS>MOLECULE
ZINC000179496896
 53 55 1 0 0
SMALL
USER_CHARGES


@<TRIPOS>ATOM
      1 C1         -3.3752    5.0111   56.9041 C.3     1  ZINC000179496896   -0.1500
      2 C2         -4.2167    3.8707   56.3277 C.3     1  ZINC000179496896   -0.1100
      3 C3         -5.5488    3.7912   57.0762 C.3     1  ZINC000179496896   -0.1400
      4 C4         -4.4805    4.1312   54.8434 C.3     1  ZINC000179496896    0.1200
      5 N5         -3.3007    3.7492   54.0634 N.pl3   1  ZINC000179496896   -0.3300
      6 N6         -2.0618    3.3660   54.5891 N.2     1  ZINC000179496896   -0.2700
      7 C7         -1.2497    3.0971   53.6044 C.2     1  ZINC000179496896    0.0800
      8 C8         -1.9485    3.3012   52.3935 C.2     1  ZINC000179496896   -0.2500
      9 C9         -1.4140    3.1140   51.0323 C.2     1  ZINC000179496896    0.5900
     10 O10        -0.2950    3.5040   50.7594 O.2     1  ZINC000179496896   -0.5300
     11 N11        -2.1656    2.5105   50.0902 N.am    1  ZINC000179496896   -0.7100
     12 C12        -1.6351    2.3261   48.7371 C.3     1  ZINC000179496896    0.1300
     13 C13        -1.4114    0.8353   48.4760 C.3     1  ZINC000179496896    0.0700
     14 H14        -1.1212    0.3433   49.4043 H       1  ZINC000179496896    0.0900
     15 C15        -2.7050    0.2099   47.9502 C.3     1  ZINC000179496896   -0.1900
     16 N16        -0.3458    0.6672   47.4789 N.3     1  ZINC000179496896   -0.5300
     17 C17         0.9787    0.8642   48.0852 C.3     1  ZINC000179496896    0.0600
     18 C18         2.0499    0.2981   47.1450 C.3     1  ZINC000179496896   -0.0400
     19 C19         1.7837    0.8329   45.7537 C.2     1  ZINC000179496896   -0.1700
     20 C20         0.6235    1.4057   45.3763 C.2     1  ZINC000179496896   -0.1100
     21 C21         0.6127    1.8224   44.0501 C.2     1  ZINC000179496896   -0.1200
     22 C22         1.7304    1.5950   43.3659 C.2     1  ZINC000179496896   -0.2200
     23 S23         2.9090    0.8079   44.4059 S.3     1  ZINC000179496896    0.1000
     24 C24        -0.5483    1.5667   46.3352 C.3     1  ZINC000179496896    0.1200
     25 C25        -3.2276    3.7023   52.7236 C.2     1  ZINC000179496896    0.0700
     26 C26        -4.3349    4.0361   51.7575 C.3     1  ZINC000179496896    0.3400
     27 F27        -5.3946    4.6314   52.4502 F       1  ZINC000179496896   -0.1500
     28 F28        -3.8557    4.9226   50.7871 F       1  ZINC000179496896   -0.2000
     29 H29        -3.1874    4.8256   57.9616 H       1  ZINC000179496896    0.0600
     30 H30        -2.4263    5.0677   56.3708 H       1  ZINC000179496896    0.0600
     31 H31        -3.9126    5.9526   56.7903 H       1  ZINC000179496896    0.0600
     32 H32        -3.6793    2.9292   56.4416 H       1  ZINC000179496896    0.0800
     33 H33        -6.0862    4.7327   56.9623 H       1  ZINC000179496896    0.0600
     34 H34        -6.1484    2.9787   56.6656 H       1  ZINC000179496896    0.0600
     35 H35        -5.3610    3.6056   58.1337 H       1  ZINC000179496896    0.0700
     36 H36        -5.3377    3.5418   54.5177 H       1  ZINC000179496896    0.1000
     37 H37        -4.6890    5.1903   54.6918 H       1  ZINC000179496896    0.1000
     38 H38        -0.2231    2.7753   53.6981 H       1  ZINC000179496896    0.2000
     39 H39        -3.0578    2.1984   50.3081 H       1  ZINC000179496896    0.4100
     40 H40        -2.3466    2.7194   48.0112 H       1  ZINC000179496896    0.0700
     41 H41        -0.6882    2.8576   48.6426 H       1  ZINC000179496896    0.0700
     42 H42        -2.5456   -0.8522   47.7641 H       1  ZINC000179496896    0.0600
     43 H43        -3.4957    0.3346   48.6900 H       1  ZINC000179496896    0.0700
     44 H44        -2.9952    0.7018   47.0218 H       1  ZINC000179496896    0.0600
     45 H45         1.1545    1.9290   48.2388 H       1  ZINC000179496896    0.0400
     46 H46         1.0223    0.3447   49.0423 H       1  ZINC000179496896    0.0900
     47 H47         3.0377    0.6156   47.4788 H       1  ZINC000179496896    0.0800
     48 H48         1.9952   -0.7904   47.1378 H       1  ZINC000179496896    0.0900
     49 H49        -0.2475    2.2995   43.6042 H       1  ZINC000179496896    0.1400
     50 H50         1.8897    1.8545   42.3296 H       1  ZINC000179496896    0.1600
     51 H51        -1.4763    1.3073   45.8256 H       1  ZINC000179496896    0.0900
     52 H52        -0.5959    2.5980   46.6848 H       1  ZINC000179496896    0.0500
     53 H53        -4.6837    3.1231   51.2749 H       1  ZINC000179496896    0.1300
@<TRIPOS>BOND
     1     1     2    1
     2     1    29    1
     3     1    30    1
     4     1    31    1
     5     2     3    1
     6     2     4    1
     7     2    32    1
     8     3    33    1
     9     3    34    1
    10     3    35    1
    11     4     5    1
    12     4    36    1
    13     4    37    1
    14     5    25    1
    15     5     6    1
    16     6     7    2
    17     7     8    1
    18     7    38    1
    19     8     9    1
    20     8    25    2
    21     9    10    2
    22     9    11   am
    23    11    12    1
    24    11    39    1
    25    12    13    1
    26    12    40    1
    27    12    41    1
    28    13    14    1
    29    13    15    1
    30    13    16    1
    31    15    42    1
    32    15    43    1
    33    15    44    1
    34    16    24    1
    35    16    17    1
    36    17    18    1
    37    17    45    1
    38    17    46    1
    39    18    19    1
    40    18    47    1
    41    18    48    1
    42    19    23    1
    43    19    20    2
    44    20    21    1
    45    20    24    1
    46    21    22    2
    47    21    49    1
    48    22    23    1
    49    22    50    1
    50    24    51    1
    51    24    52    1
    52    25    26    1
    53    26    27    1
    54    26    28    1
    55    26    53    1
@<TRIPOS>SUBSTRUCTURE
     1 ZINC000179496896        1 TEMP              0 ****  ****    0 ROOT


##########                                Name:    ZINC000991934963
##########                DOCK_Rotatable_Bonds:                   8
##########                         Heavy_Atoms:                  27
##########                    Molecular_Weight:             370.495
##########                DOCK_Rotatable_Bonds:                   8
##########                       Formal_Charge:          -0.0499997
##########                     HBond_Acceptors:                   6
##########                        HBond_Donors:                   1
##########                         Heavy_Atoms:                  27
##########                          Grid_Score:          -31.130733
##########                     Grid_vdw_energy:          -30.826355
##########                      Grid_es_energy:           -0.304379
##########           Internal_energy_repulsive:           10.719372

@<TRIPOS>MOLECULE
ZINC000991934963
 57 61 1 0 0
SMALL
USER_CHARGES


@<TRIPOS>ATOM
      1 C1         -8.8542   -1.2968   61.3032 C.3     1  ZINC000991934963    0.0400
      2 O2         -9.1636   -1.4099   59.9127 O.3     1  ZINC000991934963   -0.2900
      3 C3        -10.4392   -1.7328   59.5908 C.ar    1  ZINC000991934963    0.5000
      4 N4        -11.3170   -1.9379   60.5592 N.ar    1  ZINC000991934963   -0.5700
      5 C5        -12.5709   -2.2547   60.2801 C.ar    1  ZINC000991934963    0.1900
      6 C6        -12.9594   -2.3707   58.9550 C.ar    1  ZINC000991934963   -0.2700
      7 C7        -12.0137   -2.1489   57.9662 C.ar    1  ZINC000991934963    0.2200
      8 C8        -12.3898   -2.2637   56.5114 C.3     1  ZINC000991934963    0.1000
      9 N9        -11.6421   -1.2676   55.7323 N.3     1  ZINC000991934963   -0.4900
     10 C10       -12.3012    0.0748   55.8043 C.3     1  ZINC000991934963    0.0400
     11 C11       -12.4881    0.5568   54.3314 C.3     1  ZINC000991934963   -0.1400
     12 C12       -11.3990   -0.2398   53.6160 C.3     1  ZINC000991934963    0.1700
     13 N13       -10.0637    0.3227   53.8328 N.am    1  ZINC000991934963   -0.7000
     14 C14        -9.7330    1.5062   53.2793 C.2     1  ZINC000991934963    0.5200
     15 O15       -10.5403    2.1049   52.6005 O.2     1  ZINC000991934963   -0.5300
     16 C16        -8.3601    2.0856   53.5038 C.3     1  ZINC000991934963   -0.1100
     17 C17        -8.3611    2.9167   54.7885 C.3     1  ZINC000991934963   -0.1300
     18 H18        -9.2782    3.4706   54.9893 H       1  ZINC000991934963    0.1200
     19 C19        -7.0398    3.5593   55.2152 C.3     1  ZINC000991934963   -0.1700
     20 C20        -7.5938    2.3611   55.9899 C.3     1  ZINC000991934963   -0.1200
     21 H21        -7.0881    1.4037   55.8652 H       1  ZINC000991934963    0.1000
     22 C22        -8.1718    2.6257   57.3818 C.3     1  ZINC000991934963   -0.1200
     23 C23        -7.6811    1.7418   58.5301 C.3     1  ZINC000991934963   -0.1800
     24 C24        -7.2287    3.2006   58.4405 C.3     1  ZINC000991934963   -0.1800
     25 C25       -11.6200   -0.6992   52.1788 C.3     1  ZINC000991934963   -0.1200
     26 C26       -10.8099   -2.0319   52.1244 C.3     1  ZINC000991934963   -0.1200
     27 C27       -10.7569   -2.5592   53.5904 C.3     1  ZINC000991934963   -0.1000
     28 C28       -11.6209   -1.6114   54.3514 C.3     1  ZINC000991934963    0.0500
     29 H29       -12.6485   -1.8723   54.0979 H       1  ZINC000991934963    0.0400
     30 N30       -10.7783   -1.8301   58.3153 N.ar    1  ZINC000991934963   -0.5000
     31 H31        -9.0489   -2.2487   61.7974 H       1  ZINC000991934963    0.0600
     32 H32        -7.8028   -1.0346   61.4213 H       1  ZINC000991934963    0.1100
     33 H33        -9.4748   -0.5210   61.7516 H       1  ZINC000991934963    0.0600
     34 H34       -13.2827   -2.4213   61.0751 H       1  ZINC000991934963    0.1700
     35 H35       -13.9763   -2.6285   58.6984 H       1  ZINC000991934963    0.1500
     36 H36       -12.1472   -3.2635   56.1511 H       1  ZINC000991934963    0.1000
     37 H37       -13.4591   -2.0859   56.3974 H       1  ZINC000991934963    0.0600
     38 H38       -13.2706   -0.0107   56.2954 H       1  ZINC000991934963    0.0600
     39 H39       -11.6665    0.7741   56.3487 H       1  ZINC000991934963    0.0800
     40 H40       -13.4768    0.2937   53.9555 H       1  ZINC000991934963    0.0800
     41 H41       -12.3103    1.6288   54.2445 H       1  ZINC000991934963    0.0900
     42 H42        -9.4176   -0.1567   54.3747 H       1  ZINC000991934963    0.4000
     43 H43        -7.6350    1.2770   53.5948 H       1  ZINC000991934963    0.1000
     44 H44        -8.0915    2.7213   52.6602 H       1  ZINC000991934963    0.0900
     45 H45        -6.1699    3.3901   54.5807 H       1  ZINC000991934963    0.0900
     46 H46        -7.0877    4.5359   55.6970 H       1  ZINC000991934963    0.1000
     47 H47        -9.2121    2.9501   57.4048 H       1  ZINC000991934963    0.1000
     48 H48        -8.3989    1.4843   59.3090 H       1  ZINC000991934963    0.0900
     49 H49        -6.9467    0.9717   58.2941 H       1  ZINC000991934963    0.0900
     50 H50        -6.1967    3.3903   58.1457 H       1  ZINC000991934963    0.0900
     51 H51        -7.6488    3.9029   59.1606 H       1  ZINC000991934963    0.0900
     52 H52       -12.6777   -0.8808   51.9885 H       1  ZINC000991934963    0.0800
     53 H53       -11.2176    0.0278   51.4734 H       1  ZINC000991934963    0.0800
     54 H54       -11.3164   -2.7537   51.4836 H       1  ZINC000991934963    0.0700
     55 H55        -9.8015   -1.8439   51.7559 H       1  ZINC000991934963    0.0700
     56 H56       -11.1586   -3.5708   53.6467 H       1  ZINC000991934963    0.0700
     57 H57        -9.7351   -2.5318   53.9689 H       1  ZINC000991934963    0.0700
@<TRIPOS>BOND
     1     1     2    1
     2     1    31    1
     3     1    32    1
     4     1    33    1
     5     2     3    1
     6     3    30   ar
     7     3     4   ar
     8     4     5   ar
     9     5     6   ar
    10     5    34    1
    11     6     7   ar
    12     6    35    1
    13     7     8    1
    14     7    30   ar
    15     8     9    1
    16     8    36    1
    17     8    37    1
    18     9    28    1
    19     9    10    1
    20    10    11    1
    21    10    38    1
    22    10    39    1
    23    11    12    1
    24    11    40    1
    25    11    41    1
    26    12    28    1
    27    12    13    1
    28    12    25    1
    29    13    14   am
    30    13    42    1
    31    14    15    2
    32    14    16    1
    33    16    17    1
    34    16    43    1
    35    16    44    1
    36    17    18    1
    37    17    20    1
    38    17    19    1
    39    19    20    1
    40    19    45    1
    41    19    46    1
    42    20    21    1
    43    20    22    1
    44    22    24    1
    45    22    23    1
    46    22    47    1
    47    23    24    1
    48    23    48    1
    49    23    49    1
    50    24    50    1
    51    24    51    1
    52    25    26    1
    53    25    52    1
    54    25    53    1
    55    26    27    1
    56    26    54    1
    57    26    55    1
    58    27    28    1
    59    27    56    1
    60    27    57    1
    61    28    29    1
@<TRIPOS>SUBSTRUCTURE
     1 ZINC000991934963        1 TEMP              0 ****  ****    0 ROOT


##########                                Name:    ZINC000867639366
##########                DOCK_Rotatable_Bonds:                   6
##########                         Heavy_Atoms:                  25
##########                    Molecular_Weight:             388.509
##########                DOCK_Rotatable_Bonds:                   6
##########                       Formal_Charge:          0.00999961
##########                     HBond_Acceptors:                   9
##########                        HBond_Donors:                   1
##########                         Heavy_Atoms:                  25
##########                          Grid_Score:          -31.089149
##########                     Grid_vdw_energy:          -30.716311
##########                      Grid_es_energy:           -0.372839
##########           Internal_energy_repulsive:           41.277008

@<TRIPOS>MOLECULE
ZINC000867639366
 49 51 1 0 0
SMALL
USER_CHARGES


@<TRIPOS>ATOM
      1 C1        -13.6442   -2.0604   62.1157 C.3     1  ZINC000867639366    0.0300
      2 O2        -14.5555   -2.1609   61.0197 O.3     1  ZINC000867639366   -0.3800
      3 C3        -14.8243   -0.9161   60.3712 C.3     1  ZINC000867639366    0.0800
      4 H4        -14.9164   -0.1287   61.1193 H       1  ZINC000867639366    0.0800
      5 C5        -16.1296   -1.0239   59.5796 C.3     1  ZINC000867639366   -0.1400
      6 C6        -16.0131   -2.1516   58.5517 C.3     1  ZINC000867639366   -0.1200
      7 C7        -14.8793   -1.8299   57.5729 C.3     1  ZINC000867639366    0.1500
      8 H8        -15.1359   -0.9417   56.9957 H       1  ZINC000867639366    0.0800
      9 C9        -14.6677   -3.0132   56.6264 C.3     1  ZINC000867639366   -0.1900
     10 N10       -13.6500   -1.5819   58.3385 N.am    1  ZINC000867639366   -0.9800
     11 S11       -12.2603   -2.4149   57.9960 S.o2    1  ZINC000867639366    2.6900
     12 O12       -11.2390   -1.8387   58.7987 O.2     1  ZINC000867639366   -0.9500
     13 O13       -12.5981   -3.7943   58.0401 O.2     1  ZINC000867639366   -0.9400
     14 C14       -11.8380   -2.0592   56.3227 C.ar    1  ZINC000867639366   -0.6300
     15 C15       -11.3662   -3.0652   55.5003 C.ar    1  ZINC000867639366   -0.0500
     16 C16       -11.0348   -2.7863   54.1875 C.ar    1  ZINC000867639366   -0.0400
     17 C17       -11.1757   -1.5016   53.6970 C.ar    1  ZINC000867639366   -0.6300
     18 S18       -10.7528   -1.1459   52.0240 S.o2    1  ZINC000867639366    2.7000
     19 O19        -9.6546   -1.9873   51.7001 O.2     1  ZINC000867639366   -0.9400
     20 O20       -11.9720   -1.1435   51.2938 O.2     1  ZINC000867639366   -0.9500
     21 N21       -10.1800    0.4073   51.9827 N.am    1  ZINC000867639366   -1.0800
     22 C22        -8.9994    0.7737   52.7688 C.3     1  ZINC000867639366    0.0800
     23 C23        -8.5224    2.2255   52.6924 C.3     1  ZINC000867639366   -0.1800
     24 C24        -9.2068    1.7108   53.9603 C.3     1  ZINC000867639366   -0.1900
     25 C25       -11.6488   -0.4960   54.5191 C.ar    1  ZINC000867639366   -0.0400
     26 C26       -11.9838   -0.7757   55.8308 C.ar    1  ZINC000867639366   -0.0400
     27 C27       -13.6766   -0.5801   59.4138 C.3     1  ZINC000867639366    0.1200
     28 H28       -12.6904   -1.6702   61.7606 H       1  ZINC000867639366    0.0400
     29 H29       -14.0543   -1.3875   62.8688 H       1  ZINC000867639366    0.0400
     30 H30       -13.4928   -3.0469   62.5539 H       1  ZINC000867639366    0.0900
     31 H31       -16.9517   -1.2384   60.2625 H       1  ZINC000867639366    0.0700
     32 H32       -16.3212   -0.0821   59.0654 H       1  ZINC000867639366    0.0700
     33 H33       -15.7970   -3.0894   59.0633 H       1  ZINC000867639366    0.0800
     34 H34       -16.9512   -2.2432   58.0042 H       1  ZINC000867639366    0.0800
     35 H35       -15.5328   -3.1134   55.9709 H       1  ZINC000867639366    0.0700
     36 H36       -13.7744   -2.8426   56.0256 H       1  ZINC000867639366    0.0600
     37 H37       -14.5451   -3.9267   57.2083 H       1  ZINC000867639366    0.1000
     38 H38       -11.2560   -4.0690   55.8834 H       1  ZINC000867639366    0.1600
     39 H39       -10.6655   -3.5720   53.5451 H       1  ZINC000867639366    0.1500
     40 H40       -10.6262    1.0746   51.4381 H       1  ZINC000867639366    0.4200
     41 H41        -8.2393   -0.0017   52.8648 H       1  ZINC000867639366    0.1400
     42 H42        -7.4483    2.4054   52.7379 H       1  ZINC000867639366    0.1100
     43 H43        -9.0871    2.9079   52.0573 H       1  ZINC000867639366    0.1000
     44 H44       -10.2218    2.0547   54.1593 H       1  ZINC000867639366    0.1000
     45 H45        -8.5831    1.5522   54.8400 H       1  ZINC000867639366    0.1000
     46 H46       -11.7593    0.5077   54.1359 H       1  ZINC000867639366    0.1500
     47 H47       -12.3534    0.0099   56.4731 H       1  ZINC000867639366    0.1500
     48 H48       -13.8351    0.4102   58.9867 H       1  ZINC000867639366    0.0900
     49 H49       -12.7308   -0.5998   59.9551 H       1  ZINC000867639366    0.1000
@<TRIPOS>BOND
     1     1     2    1
     2     1    28    1
     3     1    29    1
     4     1    30    1
     5     2     3    1
     6     3     4    1
     7     3    27    1
     8     3     5    1
     9     5     6    1
    10     5    31    1
    11     5    32    1
    12     6     7    1
    13     6    33    1
    14     6    34    1
    15     7     8    1
    16     7     9    1
    17     7    10    1
    18     9    35    1
    19     9    36    1
    20     9    37    1
    21    10    11   am
    22    10    27    1
    23    11    12    2
    24    11    13    2
    25    11    14    1
    26    14    26   ar
    27    14    15   ar
    28    15    16   ar
    29    15    38    1
    30    16    17   ar
    31    16    39    1
    32    17    18    1
    33    17    25   ar
    34    18    19    2
    35    18    20    2
    36    18    21   am
    37    21    22    1
    38    21    40    1
    39    22    24    1
    40    22    23    1
    41    22    41    1
    42    23    24    1
    43    23    42    1
    44    23    43    1
    45    24    44    1
    46    24    45    1
    47    25    26   ar
    48    25    46    1
    49    26    47    1
    50    27    48    1
    51    27    49    1
@<TRIPOS>SUBSTRUCTURE
     1 ZINC000867639366        1 TEMP              0 ****  ****    0 ROOT


##########                                Name:    ZINC001070580102
##########                DOCK_Rotatable_Bonds:                   8
##########                         Heavy_Atoms:                  25
##########                    Molecular_Weight:              349.39
##########                DOCK_Rotatable_Bonds:                   8
##########                       Formal_Charge:          -0.0100003
##########                     HBond_Acceptors:                   9
##########                        HBond_Donors:                   3
##########                         Heavy_Atoms:                  25
##########                          Grid_Score:          -31.069000
##########                     Grid_vdw_energy:          -29.992552
##########                      Grid_es_energy:           -1.076449
##########           Internal_energy_repulsive:           11.842987

@<TRIPOS>MOLECULE
ZINC001070580102
 48 50 1 0 0
SMALL
USER_CHARGES


@<TRIPOS>ATOM
      1 C1        -13.6484   -3.7849   57.4958 C.3     1  ZINC001070580102   -0.0800
      2 C2        -13.0777   -3.0312   58.6694 C.2     1  ZINC001070580102   -0.0100
      3 C3        -11.8774   -2.4322   58.7000 C.2     1  ZINC001070580102   -0.1900
      4 C4        -11.7591   -1.8324   60.0371 C.2     1  ZINC001070580102   -0.2500
      5 C5        -10.6224   -1.0601   60.5697 C.2     1  ZINC001070580102    0.6000
      6 O6        -10.7542   -0.4077   61.5875 O.2     1  ZINC001070580102   -0.5300
      7 N7         -9.4369   -1.0770   59.9288 N.am    1  ZINC001070580102   -0.7200
      8 C8         -8.3076   -0.3079   60.4573 C.3     1  ZINC001070580102    0.2000
      9 C9         -8.1718    0.9796   59.6858 C.2     1  ZINC001070580102    0.2600
     10 N10        -8.0669    1.0893   58.3863 N.2     1  ZINC001070580102   -0.5100
     11 C11        -7.9641    2.3739   58.0479 C.2     1  ZINC001070580102    0.2300
     12 C12        -7.8269    2.9010   56.6429 C.3     1  ZINC001070580102    0.1400
     13 H13        -7.7503    3.9880   56.6677 H       1  ZINC001070580102    0.0800
     14 C14        -9.0532    2.4935   55.8219 C.3     1  ZINC001070580102    0.0800
     15 O15        -8.8833    2.9313   54.4711 O.3     1  ZINC001070580102   -0.3800
     16 C16        -7.7168    2.4006   53.8362 C.3     1  ZINC001070580102    0.0600
     17 C17        -6.4769    2.8072   54.6370 C.3     1  ZINC001070580102    0.0200
     18 N18        -6.6185    2.3379   56.0231 N.3     1  ZINC001070580102   -0.5200
     19 C19        -5.4219    2.6592   56.8124 C.3     1  ZINC001070580102    0.0600
     20 C20        -4.3947    1.5354   56.6618 C.3     1  ZINC001070580102    0.0800
     21 O21        -3.1379    1.9650   57.1890 O.3     1  ZINC001070580102   -0.5700
     22 N22        -8.0023    3.1028   59.1323 N.2     1  ZINC001070580102   -0.2700
     23 N23        -8.1431    2.2161   60.2124 N.pl3   1  ZINC001070580102   -0.4700
     24 C24       -12.9217   -2.1394   60.6814 C.2     1  ZINC001070580102    0.0900
     25 C25       -13.2798   -1.7427   62.0905 C.3     1  ZINC001070580102   -0.0900
     26 O26       -13.6912   -2.8470   59.8488 O.3     1  ZINC001070580102   -0.1700
     27 H27       -14.6393   -4.1596   57.7518 H       1  ZINC001070580102    0.0800
     28 H28       -13.7229   -3.1177   56.6370 H       1  ZINC001070580102    0.0900
     29 H29       -12.9956   -4.6223   57.2497 H       1  ZINC001070580102    0.0900
     30 H30       -11.1472   -2.3979   57.9050 H       1  ZINC001070580102    0.1500
     31 H31        -9.3315   -1.5982   59.1176 H       1  ZINC001070580102    0.4000
     32 H32        -8.4812   -0.0841   61.5099 H       1  ZINC001070580102    0.1000
     33 H33        -7.3920   -0.8904   60.3559 H       1  ZINC001070580102    0.1100
     34 H34        -9.1608    1.4091   55.8422 H       1  ZINC001070580102    0.0700
     35 H35        -9.9447    2.9564   56.2452 H       1  ZINC001070580102    0.1000
     36 H36        -7.7856    1.3134   53.7988 H       1  ZINC001070580102    0.0600
     37 H37        -7.6418    2.7963   52.8234 H       1  ZINC001070580102    0.1000
     38 H38        -5.5908    2.3574   54.1892 H       1  ZINC001070580102    0.1200
     39 H39        -6.3785    3.8927   54.6292 H       1  ZINC001070580102    0.0400
     40 H40        -4.9917    3.5949   56.4556 H       1  ZINC001070580102    0.0500
     41 H41        -5.6962    2.7624   57.8623 H       1  ZINC001070580102    0.0800
     42 H42        -4.7360    0.6557   57.2074 H       1  ZINC001070580102    0.0500
     43 H43        -4.2803    1.2868   55.6067 H       1  ZINC001070580102    0.0600
     44 H44        -3.1260    2.0574   58.1515 H       1  ZINC001070580102    0.3800
     45 H45        -8.2016    2.4494   61.1522 H       1  ZINC001070580102    0.4400
     46 H46       -13.7903   -0.7798   62.0782 H       1  ZINC001070580102    0.0900
     47 H47       -13.9367   -2.4967   62.5243 H       1  ZINC001070580102    0.0800
     48 H48       -12.3716   -1.6650   62.6881 H       1  ZINC001070580102    0.1100
@<TRIPOS>BOND
     1     1     2    1
     2     1    27    1
     3     1    28    1
     4     1    29    1
     5     2    26    1
     6     2     3    2
     7     3     4    1
     8     3    30    1
     9     4     5    1
    10     4    24    2
    11     5     6    2
    12     5     7   am
    13     7     8    1
    14     7    31    1
    15     8     9    1
    16     8    32    1
    17     8    33    1
    18     9    23    1
    19     9    10    2
    20    10    11    1
    21    11    12    1
    22    11    22    2
    23    12    13    1
    24    12    18    1
    25    12    14    1
    26    14    15    1
    27    14    34    1
    28    14    35    1
    29    15    16    1
    30    16    17    1
    31    16    36    1
    32    16    37    1
    33    17    18    1
    34    17    38    1
    35    17    39    1
    36    18    19    1
    37    19    20    1
    38    19    40    1
    39    19    41    1
    40    20    21    1
    41    20    42    1
    42    20    43    1
    43    21    44    1
    44    22    23    1
    45    23    45    1
    46    24    25    1
    47    24    26    1
    48    25    46    1
    49    25    47    1
    50    25    48    1
@<TRIPOS>SUBSTRUCTURE
     1 ZINC001070580102        1 TEMP              0 ****  ****    0 ROOT


##########                                Name:    ZINC000193795672
##########                DOCK_Rotatable_Bonds:                  10
##########                         Heavy_Atoms:                  23
##########                    Molecular_Weight:              332.47
##########                DOCK_Rotatable_Bonds:                  10
##########                       Formal_Charge:        -2.98023e-07
##########                     HBond_Acceptors:                   6
##########                        HBond_Donors:                   3
##########                         Heavy_Atoms:                  23
##########                          Grid_Score:          -31.067987
##########                     Grid_vdw_energy:          -31.381037
##########                      Grid_es_energy:            0.313049
##########           Internal_energy_repulsive:           10.771446

@<TRIPOS>MOLECULE
ZINC000193795672
 47 48 1 0 0
SMALL
USER_CHARGES


@<TRIPOS>ATOM
      1 C1         -2.0352    0.0536   44.9005 C.3     1  <0>        -0.1000
      2 C2         -1.9435    0.7794   46.2181 C.ar    1  <0>        -0.2000
      3 C3         -1.1564    1.9167   46.3388 C.ar    1  <0>        -0.0300
      4 C4         -1.1001    2.5534   47.5657 C.ar    1  <0>        -0.2400
      5 C5         -1.8297    2.0355   48.6307 C.ar    1  <0>         0.4000
      6 N6         -1.7823    2.6653   49.8690 N.pl3   1  <0>        -0.7300
      7 C7         -2.9739    2.6975   50.7206 C.3     1  <0>         0.1300
      8 C8         -3.0510    4.0462   51.4390 C.3     1  <0>        -0.1400
      9 C9         -4.1261    3.9844   52.5258 C.3     1  <0>         0.1400
     10 N10        -5.3810    3.5010   51.9444 N.am    1  <0>        -0.7500
     11 C11        -6.3601    3.0367   52.7457 C.2     1  <0>         0.7100
     12 O12        -6.2026    3.0205   53.9512 O.2     1  <0>        -0.5900
     13 N13        -7.5138    2.5904   52.2107 N.am    1  <0>        -0.7400
     14 C14        -8.5774    2.0841   53.0816 C.3     1  <0>         0.1700
     15 H15        -8.1349    1.6095   53.9574 H       1  <0>         0.0900
     16 C16        -9.4685    3.2456   53.5266 C.3     1  <0>        -0.1700
     17 C17        -9.4186    1.0600   52.3169 C.3     1  <0>        -0.0600
     18 C18        -9.9588    0.0343   53.2798 C.2     1  <0>        -0.1700
     19 C19       -10.0165    0.1785   54.6046 C.2     1  <0>        -0.1400
     20 C20       -10.5546   -0.8996   55.2858 C.2     1  <0>        -0.1300
     21 C21       -10.9341   -1.9194   54.5142 C.2     1  <0>        -0.2100
     22 S22       -10.6168   -1.5330   52.8279 S.3     1  <0>         0.0900
     23 N23        -2.5695    0.9483   48.4753 N.ar    1  <0>        -0.5400
     24 C24        -2.6458    0.3233   47.3157 C.ar    1  <0>         0.1500
     25 H25        -2.8571    0.4657   44.3151 H       1  <0>         0.0700
     26 H26        -1.1012    0.1765   44.3522 H       1  <0>         0.0600
     27 H27        -2.2137   -1.0064   45.0813 H       1  <0>         0.0700
     28 H28        -0.6003    2.2956   45.4941 H       1  <0>         0.1300
     29 H29        -0.4975    3.4403   47.6950 H       1  <0>         0.1300
     30 H30        -0.9600    3.0833   50.1694 H       1  <0>         0.4000
     31 H31        -3.8636    2.5620   50.1057 H       1  <0>         0.0700
     32 H32        -2.9158    1.8963   51.4573 H       1  <0>         0.0700
     33 H33        -2.0865    4.2710   51.8944 H       1  <0>         0.0800
     34 H34        -3.3045    4.8263   50.7211 H       1  <0>         0.0800
     35 H35        -3.8059    3.3047   53.3153 H       1  <0>         0.0700
     36 H36        -4.2787    4.9797   52.9430 H       1  <0>         0.0700
     37 H37        -5.5071    3.5151   50.9827 H       1  <0>         0.4000
     38 H38        -7.6399    2.6044   51.2490 H       1  <0>         0.3900
     39 H39        -9.9111    3.7202   52.6509 H       1  <0>         0.0600
     40 H40       -10.2599    2.8688   54.1746 H       1  <0>         0.0700
     41 H41        -8.8693    3.9751   54.0714 H       1  <0>         0.0700
     42 H42       -10.2475    1.5668   51.8230 H       1  <0>         0.1000
     43 H43        -8.7980    0.5655   51.5697 H       1  <0>         0.0800
     44 H44        -9.6693    1.0689   55.1076 H       1  <0>         0.1400
     45 H45       -10.6591   -0.9141   56.3607 H       1  <0>         0.1400
     46 H46       -11.3724   -2.8400   54.8702 H       1  <0>         0.1600
     47 H47        -3.2594   -0.5609   47.2262 H       1  <0>         0.1500
@<TRIPOS>BOND
     1     1     2    1
     2     1    25    1
     3     1    26    1
     4     1    27    1
     5     2    24   ar
     6     2     3   ar
     7     3     4   ar
     8     3    28    1
     9     4     5   ar
    10     4    29    1
    11     5     6    1
    12     5    23   ar
    13     6     7    1
    14     6    30    1
    15     7     8    1
    16     7    31    1
    17     7    32    1
    18     8     9    1
    19     8    33    1
    20     8    34    1
    21     9    10    1
    22     9    35    1
    23     9    36    1
    24    10    11   am
    25    10    37    1
    26    11    12    2
    27    11    13   am
    28    13    14    1
    29    13    38    1
    30    14    15    1
    31    14    16    1
    32    14    17    1
    33    16    39    1
    34    16    40    1
    35    16    41    1
    36    17    18    1
    37    17    42    1
    38    17    43    1
    39    18    22    1
    40    18    19    2
    41    19    20    1
    42    19    44    1
    43    20    21    2
    44    20    45    1
    45    21    22    1
    46    21    46    1
    47    23    24   ar
    48    24    47    1
@<TRIPOS>SUBSTRUCTURE
     1 <0>         1 TEMP              0 ****  ****    0 ROOT


##########                                Name:    ZINC000151850193
##########                DOCK_Rotatable_Bonds:                  11
##########                         Heavy_Atoms:                  23
##########                    Molecular_Weight:             328.452
##########                DOCK_Rotatable_Bonds:                  11
##########                       Formal_Charge:            0.039999
##########                     HBond_Acceptors:                   6
##########                        HBond_Donors:                   2
##########                         Heavy_Atoms:                  23
##########                          Grid_Score:          -31.050343
##########                     Grid_vdw_energy:          -31.056229
##########                      Grid_es_energy:            0.005887
##########           Internal_energy_repulsive:           53.585621

@<TRIPOS>MOLECULE
ZINC000151850193
 55 55 1 0 0
SMALL
USER_CHARGES


@<TRIPOS>ATOM
      1 C1          0.5606    2.7479   45.7617 C.3     1  ZINC000151850193   -0.1500
      2 C2         -0.2046    1.4250   45.8343 C.3     1  ZINC000151850193   -0.1000
      3 C3         -0.4579    1.0620   47.2989 C.3     1  ZINC000151850193   -0.0800
      4 C4          0.8145    1.0948   48.1477 C.3     1  ZINC000151850193   -0.1000
      5 C5          1.8991    0.2519   47.4737 C.3     1  ZINC000151850193   -0.1500
      6 C6         -1.6389    1.8213   47.9262 C.3     1  ZINC000151850193    0.1400
      7 H7         -1.8476    2.7775   47.4465 H       1  ZINC000151850193    0.1000
      8 N8         -1.5632    1.9215   49.3858 N.am    1  ZINC000151850193   -0.7000
      9 C9         -2.2029    2.9198   50.0268 C.2     1  ZINC000151850193    0.5200
     10 O10        -2.8399    3.7359   49.3950 O.2     1  ZINC000151850193   -0.5300
     11 C11        -2.1265    3.0219   51.5284 C.3     1  ZINC000151850193   -0.1500
     12 C12        -1.0098    3.9928   51.9173 C.3     1  ZINC000151850193    0.1500
     13 N13        -0.4101    3.5652   53.1837 N.am    1  ZINC000151850193   -0.7100
     14 C14        -1.1322    3.6114   54.3208 C.2     1  ZINC000151850193    0.6500
     15 O15        -2.2801    4.0090   54.2958 O.2     1  ZINC000151850193   -0.5600
     16 O16        -0.5815    3.2169   55.4844 O.3     1  ZINC000151850193   -0.3700
     17 C17        -1.3561    3.4453   56.6910 C.3     1  ZINC000151850193    0.1400
     18 C18        -1.6809    4.9354   56.8143 C.3     1  ZINC000151850193   -0.1800
     19 C19        -2.6576    2.6440   56.6209 C.3     1  ZINC000151850193   -0.1400
     20 C20        -0.5463    2.9973   57.9094 C.3     1  ZINC000151850193   -0.1800
     21 C21        -2.5368    0.6750   47.4314 C.3     1  ZINC000151850193   -0.1700
     22 C22        -1.2873   -0.2201   47.4812 C.3     1  ZINC000151850193    0.0700
     23 H23        -1.2120   -0.9119   46.6421 H       1  ZINC000151850193    0.0800
     24 O24        -1.0894   -0.8571   48.7450 O.3     1  ZINC000151850193   -0.3700
     25 C25        -0.8930   -2.2699   48.6593 C.3     1  ZINC000151850193    0.0300
     26 H26        -0.0416    3.5408   46.2054 H       1  ZINC000151850193    0.0600
     27 H27         1.4991    2.6552   46.3084 H       1  ZINC000151850193    0.0600
     28 H28         0.7695    2.9902   44.7197 H       1  ZINC000151850193    0.0600
     29 H29        -1.1576    1.5275   45.3152 H       1  ZINC000151850193    0.0700
     30 H30         0.3838    0.6385   45.3616 H       1  ZINC000151850193    0.0700
     31 H31         1.1611    2.1238   48.2434 H       1  ZINC000151850193    0.0700
     32 H32         0.6018    0.6895   49.1369 H       1  ZINC000151850193    0.0700
     33 H33         1.5827   -0.7907   47.4437 H       1  ZINC000151850193    0.0500
     34 H34         2.0600    0.6122   46.4575 H       1  ZINC000151850193    0.0500
     35 H35         2.8271    0.3339   48.0396 H       1  ZINC000151850193    0.0500
     36 H36        -1.0528    1.2695   49.8909 H       1  ZINC000151850193    0.4100
     37 H37        -3.0772    3.3875   51.9165 H       1  ZINC000151850193    0.1000
     38 H38        -1.9162    2.0387   51.9493 H       1  ZINC000151850193    0.1000
     39 H39        -0.2473    4.0004   51.1384 H       1  ZINC000151850193    0.0800
     40 H40        -1.4229    4.9950   52.0311 H       1  ZINC000151850193    0.0800
     41 H41         0.5067    3.2489   53.2039 H       1  ZINC000151850193    0.4100
     42 H42        -2.2578    5.2545   55.9463 H       1  ZINC000151850193    0.0600
     43 H43        -2.2623    5.1068   57.7201 H       1  ZINC000151850193    0.0700
     44 H44        -0.7536    5.5063   56.8642 H       1  ZINC000151850193    0.0900
     45 H45        -2.4264    1.5824   56.5331 H       1  ZINC000151850193    0.0700
     46 H46        -3.2392    2.8153   57.5267 H       1  ZINC000151850193    0.0800
     47 H47        -3.2345    2.9630   55.7529 H       1  ZINC000151850193    0.0700
     48 H48         0.3808    3.5682   57.9593 H       1  ZINC000151850193    0.0900
     49 H49        -1.1279    3.1688   58.8153 H       1  ZINC000151850193    0.0700
     50 H50        -0.3151    1.9357   57.8216 H       1  ZINC000151850193    0.0600
     51 H51        -3.3092    0.3865   48.1442 H       1  ZINC000151850193    0.0800
     52 H52        -2.9246    0.8278   46.4242 H       1  ZINC000151850193    0.1000
     53 H53        -1.7674   -2.7311   48.2001 H       1  ZINC000151850193    0.0400
     54 H54        -0.0117   -2.4782   48.0527 H       1  ZINC000151850193    0.0400
     55 H55        -0.7503   -2.6783   49.6598 H       1  ZINC000151850193    0.0900
@<TRIPOS>BOND
     1     1     2    1
     2     1    26    1
     3     1    27    1
     4     1    28    1
     5     2     3    1
     6     2    29    1
     7     2    30    1
     8     3    22    1
     9     3     4    1
    10     3     6    1
    11     4     5    1
    12     4    31    1
    13     4    32    1
    14     5    33    1
    15     5    34    1
    16     5    35    1
    17     6     7    1
    18     6     8    1
    19     6    21    1
    20     8     9   am
    21     8    36    1
    22     9    10    2
    23     9    11    1
    24    11    12    1
    25    11    37    1
    26    11    38    1
    27    12    13    1
    28    12    39    1
    29    12    40    1
    30    13    14   am
    31    13    41    1
    32    14    15    2
    33    14    16    1
    34    16    17    1
    35    17    18    1
    36    17    19    1
    37    17    20    1
    38    18    42    1
    39    18    43    1
    40    18    44    1
    41    19    45    1
    42    19    46    1
    43    19    47    1
    44    20    48    1
    45    20    49    1
    46    20    50    1
    47    21    22    1
    48    21    51    1
    49    21    52    1
    50    22    23    1
    51    22    24    1
    52    24    25    1
    53    25    53    1
    54    25    54    1
    55    25    55    1
@<TRIPOS>SUBSTRUCTURE
     1 ZINC000151850193        1 TEMP              0 ****  ****    0 ROOT


##########                                Name:    ZINC001289410668
##########                DOCK_Rotatable_Bonds:                  11
##########                         Heavy_Atoms:                  26
##########                    Molecular_Weight:             362.515
##########                DOCK_Rotatable_Bonds:                  11
##########                       Formal_Charge:          -0.0400008
##########                     HBond_Acceptors:                   6
##########                        HBond_Donors:                   1
##########                         Heavy_Atoms:                  26
##########                          Grid_Score:          -31.044407
##########                     Grid_vdw_energy:          -29.371569
##########                      Grid_es_energy:           -1.672838
##########           Internal_energy_repulsive:           17.948437

@<TRIPOS>MOLECULE
ZINC001289410668
 60 61 1 0 0
SMALL
USER_CHARGES


@<TRIPOS>ATOM
      1 C1         -0.2059    3.5107   56.5490 C.3     1  ZINC001289410668   -0.1500
      2 C2         -1.0890    3.3305   55.3126 C.3     1  ZINC001289410668   -0.1300
      3 C3         -1.5011    4.7028   54.7760 C.3     1  ZINC001289410668   -0.1200
      4 C4         -2.3837    4.5228   53.5392 C.3     1  ZINC001289410668   -0.1200
      5 C5         -1.6041    3.7663   52.4619 C.3     1  ZINC001289410668   -0.1100
      6 C6         -2.4874    3.5844   51.2260 C.3     1  ZINC001289410668   -0.1400
      7 C7         -1.7190    2.8404   50.1644 C.2     1  ZINC001289410668    0.5100
      8 O8         -0.5172    2.9781   50.0770 O.2     1  ZINC001289410668   -0.5300
      9 N9         -2.3673    2.0220   49.3120 N.am    1  ZINC001289410668   -0.7200
     10 C10        -1.6200    1.2974   48.2811 C.3     1  ZINC001289410668    0.1400
     11 H11        -0.7411    0.8129   48.7066 H       1  ZINC001289410668    0.1100
     12 C12        -1.2257    2.2390   47.1161 C.3     1  ZINC001289410668    0.0800
     13 N13        -1.0641    1.3504   45.9508 N.am    1  ZINC001289410668   -0.6200
     14 C14        -0.3109    1.6097   44.8637 C.2     1  ZINC001289410668    0.5100
     15 O15        -0.2498    0.8015   43.9615 O.2     1  ZINC001289410668   -0.5100
     16 C16         0.4555    2.9038   44.7692 C.3     1  ZINC001289410668    0.0900
     17 N17         1.8484    2.6763   45.1622 N.pl3   1  ZINC001289410668   -0.4500
     18 C18         2.3627    2.7793   46.4266 C.2     1  ZINC001289410668   -0.0500
     19 C19         3.6745    2.4876   46.3384 C.2     1  ZINC001289410668   -0.0200
     20 N20         3.9534    2.2140   45.0553 N.2     1  ZINC001289410668   -0.4800
     21 C21         2.8634    2.3201   44.3458 C.2     1  ZINC001289410668    0.2300
     22 C22         2.7568    2.0921   42.8599 C.3     1  ZINC001289410668   -0.0100
     23 C23         3.0090    3.4089   42.1226 C.3     1  ZINC001289410668   -0.1400
     24 C24         3.7974    1.0576   42.4268 C.3     1  ZINC001289410668   -0.1400
     25 C25        -1.8602    0.1341   46.1715 C.3     1  ZINC001289410668    0.1100
     26 C26        -2.5271    0.2675   47.5573 C.3     1  ZINC001289410668   -0.1100
     27 H27        -3.5433    0.6500   47.4611 H       1  ZINC001289410668    0.0900
     28 C28        -2.5234   -1.0750   48.2912 C.3     1  ZINC001289410668   -0.1400
     29 H29         0.0877    2.5331   56.9314 H       1  ZINC001289410668    0.0500
     30 H30         0.6850    4.0780   56.2795 H       1  ZINC001289410668    0.0500
     31 H31        -0.7612    4.0494   57.3168 H       1  ZINC001289410668    0.0500
     32 H32        -0.5337    2.7919   54.5448 H       1  ZINC001289410668    0.0600
     33 H33        -1.9799    2.7633   55.5821 H       1  ZINC001289410668    0.0600
     34 H34        -2.0568    5.2413   55.5436 H       1  ZINC001289410668    0.0600
     35 H35        -0.6102    5.2703   54.5069 H       1  ZINC001289410668    0.0600
     36 H36        -3.2749    3.9558   53.8083 H       1  ZINC001289410668    0.0600
     37 H37        -2.6769    5.5004   53.1566 H       1  ZINC001289410668    0.0600
     38 H38        -0.7137    4.3340   52.1917 H       1  ZINC001289410668    0.0700
     39 H39        -1.3096    2.7893   52.8450 H       1  ZINC001289410668    0.0700
     40 H40        -3.3774    3.0159   51.4960 H       1  ZINC001289410668    0.1000
     41 H41        -2.7826    4.5614   50.8434 H       1  ZINC001289410668    0.1000
     42 H42        -3.3286    1.9128   49.3812 H       1  ZINC001289410668    0.4000
     43 H43        -2.0166    2.9662   46.9318 H       1  ZINC001289410668    0.0800
     44 H44        -0.2872    2.7463   47.3393 H       1  ZINC001289410668    0.0800
     45 H45         0.4227    3.2714   43.7436 H       1  ZINC001289410668    0.1200
     46 H46         0.0062    3.6414   45.4341 H       1  ZINC001289410668    0.1200
     47 H47         1.8208    3.0440   47.3225 H       1  ZINC001289410668    0.1700
     48 H48         4.3785    2.4761   47.1574 H       1  ZINC001289410668    0.1700
     49 H49         1.7586    1.7263   42.6191 H       1  ZINC001289410668    0.0700
     50 H50         4.0071    3.7746   42.3634 H       1  ZINC001289410668    0.0700
     51 H51         2.9319    3.2440   41.0480 H       1  ZINC001289410668    0.0600
     52 H52         2.2676    4.1458   42.4312 H       1  ZINC001289410668    0.0500
     53 H53         4.7956    1.4235   42.6675 H       1  ZINC001289410668    0.0700
     54 H54         3.6178    0.1195   42.9521 H       1  ZINC001289410668    0.0600
     55 H55         3.7204    0.8927   41.3521 H       1  ZINC001289410668    0.0600
     56 H56        -2.6240    0.0458   45.3990 H       1  ZINC001289410668    0.0800
     57 H57        -1.2113   -0.7415   46.1558 H       1  ZINC001289410668    0.0800
     58 H58        -1.4973   -1.4250   48.4033 H       1  ZINC001289410668    0.0600
     59 H59        -2.9749   -0.9521   49.2757 H       1  ZINC001289410668    0.0600
     60 H60        -3.0956   -1.8042   47.7176 H       1  ZINC001289410668    0.0700
@<TRIPOS>BOND
     1     1     2    1
     2     1    29    1
     3     1    30    1
     4     1    31    1
     5     2     3    1
     6     2    32    1
     7     2    33    1
     8     3     4    1
     9     3    34    1
    10     3    35    1
    11     4     5    1
    12     4    36    1
    13     4    37    1
    14     5     6    1
    15     5    38    1
    16     5    39    1
    17     6     7    1
    18     6    40    1
    19     6    41    1
    20     7     8    2
    21     7     9   am
    22     9    10    1
    23     9    42    1
    24    10    11    1
    25    10    26    1
    26    10    12    1
    27    12    13    1
    28    12    43    1
    29    12    44    1
    30    13    14   am
    31    13    25    1
    32    14    15    2
    33    14    16    1
    34    16    17    1
    35    16    45    1
    36    16    46    1
    37    17    21    1
    38    17    18    1
    39    18    19    2
    40    18    47    1
    41    19    20    1
    42    19    48    1
    43    20    21    2
    44    21    22    1
    45    22    23    1
    46    22    24    1
    47    22    49    1
    48    23    50    1
    49    23    51    1
    50    23    52    1
    51    24    53    1
    52    24    54    1
    53    24    55    1
    54    25    26    1
    55    25    56    1
    56    25    57    1
    57    26    27    1
    58    26    28    1
    59    28    58    1
    60    28    59    1
    61    28    60    1
@<TRIPOS>SUBSTRUCTURE
     1 ZINC001289410668        1 TEMP              0 ****  ****    0 ROOT


##########                                Name:    ZINC000543625960
##########                DOCK_Rotatable_Bonds:                   8
##########                         Heavy_Atoms:                  29
##########                    Molecular_Weight:             416.544
##########                DOCK_Rotatable_Bonds:                   8
##########                       Formal_Charge:           -0.010001
##########                     HBond_Acceptors:                   8
##########                        HBond_Donors:                   2
##########                         Heavy_Atoms:                  29
##########                          Grid_Score:          -31.044203
##########                     Grid_vdw_energy:          -29.873051
##########                      Grid_es_energy:           -1.171152
##########           Internal_energy_repulsive:           14.224451

@<TRIPOS>MOLECULE
ZINC000543625960
 57 59 1 0 0
SMALL
USER_CHARGES


@<TRIPOS>ATOM
      1 C1        -14.2062   -1.2943   50.3372 C.3     1  ZINC000543625960   -0.1500
      2 C2        -14.3203   -0.8283   51.7900 C.3     1  ZINC000543625960   -0.1300
      3 C3        -13.2665    0.2464   52.0651 C.3     1  ZINC000543625960    0.1500
      4 H4        -13.1552    0.3791   53.1412 H       1  ZINC000543625960    0.0800
      5 C5        -13.7076    1.5672   51.4313 C.3     1  ZINC000543625960   -0.1700
      6 N6        -11.9848   -0.1676   51.4890 N.am    1  ZINC000543625960   -1.1100
      7 S7        -10.8886   -0.9933   52.4157 S.o2    1  ZINC000543625960    2.7000
      8 O8        -11.5802   -2.1117   52.9544 O.2     1  ZINC000543625960   -0.9600
      9 O9         -9.7095   -1.1127   51.6317 O.2     1  ZINC000543625960   -0.9500
     10 C10       -10.4757    0.0413   53.7810 C.ar    1  ZINC000543625960   -0.6600
     11 C11       -10.2530    1.3912   53.5819 C.ar    1  ZINC000543625960   -0.0400
     12 C12        -9.9286    2.2066   54.6508 C.ar    1  ZINC000543625960   -0.1200
     13 C13        -9.8262    1.6744   55.9209 C.ar    1  ZINC000543625960   -0.0600
     14 C14       -10.0498    0.3188   56.1243 C.ar    1  ZINC000543625960    0.1500
     15 N15        -9.9468   -0.2237   57.4103 N.am    1  ZINC000543625960   -0.6800
     16 C16       -11.0054   -0.1875   58.2436 C.2     1  ZINC000543625960    0.7200
     17 O17       -12.0499    0.3164   57.8782 O.2     1  ZINC000543625960   -0.5600
     18 N18       -10.9064   -0.7099   59.4821 N.am    1  ZINC000543625960   -0.6300
     19 C19        -9.7057   -1.3482   60.0517 C.3     1  ZINC000543625960    0.0900
     20 C20        -9.8700   -1.2042   61.5854 C.3     1  ZINC000543625960   -0.1000
     21 H21        -9.3140   -1.9797   62.1123 H       1  ZINC000543625960    0.1000
     22 C22        -9.4424    0.1879   62.0545 C.3     1  ZINC000543625960   -0.1500
     23 C23       -11.3993   -1.4037   61.7550 C.3     1  ZINC000543625960   -0.1200
     24 C24       -11.9757   -0.7320   60.4908 C.3     1  ZINC000543625960    0.2000
     25 H25       -12.2937    0.2843   60.7234 H       1  ZINC000543625960    0.0900
     26 C26       -13.1456   -1.5294   59.9748 C.ar    1  ZINC000543625960   -0.1400
     27 C27       -12.9472   -2.7750   59.3997 C.ar    1  ZINC000543625960   -0.0600
     28 C28       -14.0533   -3.4731   58.9392 C.ar    1  ZINC000543625960   -0.1700
     29 C29       -15.3078   -2.9081   59.0678 C.ar    1  ZINC000543625960    0.1000
     30 N30       -15.4590   -1.7202   59.6206 N.ar    1  ZINC000543625960   -0.4800
     31 C31       -14.4309   -1.0304   60.0742 C.ar    1  ZINC000543625960    0.1200
     32 C32       -10.3803   -0.4961   55.0499 C.ar    1  ZINC000543625960   -0.0500
     33 H33       -14.9569   -2.0600   50.1413 H       1  ZINC000543625960    0.0600
     34 H34       -14.3681   -0.4476   49.6702 H       1  ZINC000543625960    0.0600
     35 H35       -13.2123   -1.7076   50.1652 H       1  ZINC000543625960    0.0500
     36 H36       -15.3142   -0.4151   51.9620 H       1  ZINC000543625960    0.0700
     37 H37       -14.1584   -1.6750   52.4570 H       1  ZINC000543625960    0.0800
     38 H38       -14.6612    1.8753   51.8600 H       1  ZINC000543625960    0.0700
     39 H39       -12.9569    2.3328   51.6273 H       1  ZINC000543625960    0.0700
     40 H40       -13.8189    1.4346   50.3551 H       1  ZINC000543625960    0.0600
     41 H41       -11.7782    0.0419   50.5647 H       1  ZINC000543625960    0.4200
     42 H42       -10.3320    1.8098   52.5894 H       1  ZINC000543625960    0.1400
     43 H43        -9.7548    3.2606   54.4920 H       1  ZINC000543625960    0.1400
     44 H44        -9.5723    2.3115   56.7552 H       1  ZINC000543625960    0.1400
     45 H45        -9.1137   -0.6257   57.7018 H       1  ZINC000543625960    0.4100
     46 H46        -9.6665   -2.4008   59.7716 H       1  ZINC000543625960    0.0700
     47 H47        -8.8063   -0.8317   59.7165 H       1  ZINC000543625960    0.0800
     48 H48       -10.0416    0.9429   61.5453 H       1  ZINC000543625960    0.0600
     49 H49        -9.5922    0.2705   63.1310 H       1  ZINC000543625960    0.0600
     50 H50        -8.3889    0.3422   61.8214 H       1  ZINC000543625960    0.0600
     51 H51       -11.6494   -2.4644   61.7805 H       1  ZINC000543625960    0.0800
     52 H52       -11.7567   -0.9004   62.6533 H       1  ZINC000543625960    0.0900
     53 H53       -11.9547   -3.1917   59.3120 H       1  ZINC000543625960    0.1300
     54 H54       -13.9359   -4.4460   58.4852 H       1  ZINC000543625960    0.1400
     55 H55       -16.1742   -3.4451   58.7114 H       1  ZINC000543625960    0.1600
     56 H56       -14.5940   -0.0607   60.5208 H       1  ZINC000543625960    0.1400
     57 H57       -10.5548   -1.5507   55.2048 H       1  ZINC000543625960    0.1400
@<TRIPOS>BOND
     1     1     2    1
     2     1    33    1
     3     1    34    1
     4     1    35    1
     5     2     3    1
     6     2    36    1
     7     2    37    1
     8     3     4    1
     9     3     5    1
    10     3     6    1
    11     5    38    1
    12     5    39    1
    13     5    40    1
    14     6     7   am
    15     6    41    1
    16     7     8    2
    17     7     9    2
    18     7    10    1
    19    10    32   ar
    20    10    11   ar
    21    11    12   ar
    22    11    42    1
    23    12    13   ar
    24    12    43    1
    25    13    14   ar
    26    13    44    1
    27    14    15    1
    28    14    32   ar
    29    15    16   am
    30    15    45    1
    31    16    17    2
    32    16    18   am
    33    18    24    1
    34    18    19    1
    35    19    20    1
    36    19    46    1
    37    19    47    1
    38    20    21    1
    39    20    22    1
    40    20    23    1
    41    22    48    1
    42    22    49    1
    43    22    50    1
    44    23    24    1
    45    23    51    1
    46    23    52    1
    47    24    25    1
    48    24    26    1
    49    26    31   ar
    50    26    27   ar
    51    27    28   ar
    52    27    53    1
    53    28    29   ar
    54    28    54    1
    55    29    30   ar
    56    29    55    1
    57    30    31   ar
    58    31    56    1
    59    32    57    1
@<TRIPOS>SUBSTRUCTURE
     1 ZINC000543625960        1 TEMP              0 ****  ****    0 ROOT


##########                                Name:    ZINC000541252362
##########                DOCK_Rotatable_Bonds:                   5
##########                         Heavy_Atoms:                  27
##########                    Molecular_Weight:             401.254
##########                DOCK_Rotatable_Bonds:                   5
##########                       Formal_Charge:          -0.0199999
##########                     HBond_Acceptors:                   9
##########                        HBond_Donors:                   1
##########                         Heavy_Atoms:                  27
##########                          Grid_Score:          -31.034260
##########                     Grid_vdw_energy:          -29.646524
##########                      Grid_es_energy:           -1.387736
##########           Internal_energy_repulsive:            4.721024

@<TRIPOS>MOLECULE
ZINC000541252362
 41 44 1 0 0
SMALL
USER_CHARGES


@<TRIPOS>ATOM
      1 C1          2.9302   -0.2731   55.1276 C.3     1  ZINC000541252362    0.1000
      2 N2          2.1023    0.7167   55.8212 N.pl3   1  ZINC000541252362   -0.3800
      3 C3          2.2309    1.1206   57.0980 C.2     1  ZINC000541252362    0.2600
      4 N4          1.3072    2.0124   57.3411 N.2     1  ZINC000541252362   -0.5300
      5 C5          0.5651    2.2075   56.2428 C.2     1  ZINC000541252362    0.2700
      6 C6         -0.5792    3.1454   56.1275 C.ar    1  ZINC000541252362    0.0000
      7 C7         -0.9277    3.9581   57.2045 C.ar    1  ZINC000541252362   -0.1000
      8 C8         -1.9924    4.8306   57.0956 C.ar    1  ZINC000541252362   -0.1000
      9 C9         -2.7158    4.9010   55.9205 C.ar    1  ZINC000541252362   -0.1300
     10 C10        -2.3753    4.0943   54.8414 C.ar    1  ZINC000541252362    0.1400
     11 N11        -3.1102    4.1683   53.6527 N.am    1  ZINC000541252362   -0.6800
     12 C12        -2.4907    4.4729   52.4952 C.2     1  ZINC000541252362    0.5100
     13 O13        -1.2961    4.6830   52.4837 O.2     1  ZINC000541252362   -0.4900
     14 C14        -3.2820    4.5526   51.2152 C.3     1  ZINC000541252362   -0.0600
     15 C15        -2.8253    3.4681   50.2738 C.2     1  ZINC000541252362    0.0700
     16 C16        -3.3268    2.2148   50.2122 C.2     1  ZINC000541252362   -0.0700
     17 N17        -2.6406    1.5527   49.2312 N.pl3   1  ZINC000541252362   -0.3500
     18 C18        -2.7239    0.2793   48.7442 C.2     1  ZINC000541252362    0.0700
     19 C19        -1.9088   -0.1310   47.7489 C.2     1  ZINC000541252362   -0.0500
     20 Cl20       -2.0316   -1.7538   47.1448 Cl      1  ZINC000541252362   -0.0200
     21 C21        -0.9618    0.7503   47.1996 C.2     1  ZINC000541252362   -0.0900
     22 C22        -0.8689    2.0220   47.6756 C.2     1  ZINC000541252362    0.0200
     23 Cl23        0.2943    3.1249   47.0091 Cl      1  ZINC000541252362   -0.0100
     24 C24        -1.7272    2.4347   48.7158 C.2     1  ZINC000541252362    0.2200
     25 N25        -1.8618    3.5870   49.3576 N.2     1  ZINC000541252362   -0.4300
     26 C26        -1.3040    3.2198   54.9409 C.ar    1  ZINC000541252362   -0.0800
     27 N27         1.0225    1.4347   55.2822 N.2     1  ZINC000541252362   -0.3100
     28 H28         3.7783    0.2266   54.6594 H       1  ZINC000541252362    0.0800
     29 H29         3.2929   -1.0098   55.8444 H       1  ZINC000541252362    0.0900
     30 H30         2.3353   -0.7725   54.3628 H       1  ZINC000541252362    0.0900
     31 H31         2.9707    0.7681   57.8015 H       1  ZINC000541252362    0.2200
     32 H32        -0.3650    3.9052   58.1248 H       1  ZINC000541252362    0.1300
     33 H33        -2.2608    5.4596   57.9316 H       1  ZINC000541252362    0.1300
     34 H34        -3.5481    5.5845   55.8404 H       1  ZINC000541252362    0.1300
     35 H35        -4.0655    4.0004   53.6620 H       1  ZINC000541252362    0.4100
     36 H36        -4.3417    4.4209   51.4345 H       1  ZINC000541252362    0.1200
     37 H37        -3.1254    5.5264   50.7511 H       1  ZINC000541252362    0.1200
     38 H38        -4.1204    1.8112   50.8235 H       1  ZINC000541252362    0.1900
     39 H39        -3.4482   -0.4058   49.1594 H       1  ZINC000541252362    0.1800
     40 H40        -0.3107    0.4199   46.4037 H       1  ZINC000541252362    0.1600
     41 H41        -1.0375    2.5922   54.1034 H       1  ZINC000541252362    0.1500
@<TRIPOS>BOND
     1     1     2    1
     2     1    28    1
     3     1    29    1
     4     1    30    1
     5     2    27    1
     6     2     3    1
     7     3     4    2
     8     3    31    1
     9     4     5    1
    10     5     6    1
    11     5    27    2
    12     6    26   ar
    13     6     7   ar
    14     7     8   ar
    15     7    32    1
    16     8     9   ar
    17     8    33    1
    18     9    10   ar
    19     9    34    1
    20    10    11    1
    21    10    26   ar
    22    11    12   am
    23    11    35    1
    24    12    13    2
    25    12    14    1
    26    14    15    1
    27    14    36    1
    28    14    37    1
    29    15    25    1
    30    15    16    2
    31    16    17    1
    32    16    38    1
    33    17    24    1
    34    17    18    1
    35    18    19    2
    36    18    39    1
    37    19    20    1
    38    19    21    1
    39    21    22    2
    40    21    40    1
    41    22    23    1
    42    22    24    1
    43    24    25    2
    44    26    41    1
@<TRIPOS>SUBSTRUCTURE
     1 ZINC000541252362        1 TEMP              0 ****  ****    0 ROOT


##########                                Name:    ZINC000938043669
##########                DOCK_Rotatable_Bonds:                   7
##########                         Heavy_Atoms:                  27
##########                    Molecular_Weight:             372.439
##########                DOCK_Rotatable_Bonds:                   7
##########                       Formal_Charge:           0.0499999
##########                     HBond_Acceptors:                   6
##########                        HBond_Donors:                   1
##########                         Heavy_Atoms:                  27
##########                          Grid_Score:          -31.027533
##########                     Grid_vdw_energy:          -30.383308
##########                      Grid_es_energy:           -0.644225
##########           Internal_energy_repulsive:           42.214855

@<TRIPOS>MOLECULE
ZINC000938043669
 52 55 1 0 0
SMALL
USER_CHARGES


@<TRIPOS>ATOM
      1 O1         -8.5680   -0.0148   50.9259 O.2     1  ZINC000938043669   -0.5000
      2 C2         -9.0703    0.3083   51.9815 C.2     1  ZINC000938043669    0.5300
      3 C3         -8.6805    1.6094   52.6345 C.3     1  ZINC000938043669    0.0500
      4 O4         -7.3092    1.8932   52.3498 O.3     1  ZINC000938043669   -0.2800
      5 C5         -6.7966    3.0418   52.8657 C.ar    1  ZINC000938043669    0.0900
      6 C6         -5.4752    3.3830   52.6233 C.ar    1  ZINC000938043669   -0.1800
      7 C7         -4.9562    4.5515   53.1484 C.ar    1  ZINC000938043669   -0.0900
      8 C8         -5.7531    5.3808   53.9150 C.ar    1  ZINC000938043669   -0.1300
      9 C9         -7.0719    5.0441   54.1598 C.ar    1  ZINC000938043669   -0.1100
     10 C10        -7.5982    3.8790   53.6323 C.ar    1  ZINC000938043669    0.0800
     11 F11        -8.8864    3.5498   53.8710 F       1  ZINC000938043669   -0.1300
     12 N12        -9.9813   -0.4935   52.5677 N.am    1  ZINC000938043669   -0.6200
     13 C13       -10.4519   -1.7833   52.0423 C.3     1  ZINC000938043669    0.1000
     14 C14       -11.4653   -2.3500   53.0588 C.3     1  ZINC000938043669   -0.1400
     15 C15       -11.0859   -1.6175   54.3729 C.3     1  ZINC000938043669    0.1300
     16 H16       -10.2504   -2.1119   54.8685 H       1  ZINC000938043669    0.1100
     17 N17       -12.2397   -1.5168   55.2700 N.am    1  ZINC000938043669   -0.7200
     18 C18       -12.5657   -2.5533   56.0675 C.2     1  ZINC000938043669    0.5200
     19 O19       -11.9029   -3.5687   56.0436 O.2     1  ZINC000938043669   -0.5200
     20 C20       -13.7536   -2.4504   56.9890 C.3     1  ZINC000938043669   -0.1000
     21 H21       -14.6682   -2.6281   56.4235 H       1  ZINC000938043669    0.1000
     22 C22       -13.7999   -1.0510   57.6068 C.3     1  ZINC000938043669   -0.1100
     23 C23       -13.7067   -1.1608   59.1341 C.3     1  ZINC000938043669   -0.0600
     24 H24       -13.6861   -0.1719   59.5920 H       1  ZINC000938043669    0.0800
     25 C25       -12.4421   -1.9374   59.4694 C.2     1  ZINC000938043669   -0.1800
     26 C26       -12.4018   -3.1545   58.9322 C.2     1  ZINC000938043669   -0.1300
     27 C27       -13.6292   -3.4986   58.1022 C.3     1  ZINC000938043669   -0.0400
     28 H28       -13.5481   -4.5050   57.6912 H       1  ZINC000938043669    0.0900
     29 C29       -14.8574   -3.3808   59.0151 C.3     1  ZINC000938043669   -0.1200
     30 C30       -14.9135   -1.9670   59.6342 C.3     1  ZINC000938043669   -0.1100
     31 C31       -10.6663   -0.2252   53.8453 C.3     1  ZINC000938043669    0.1000
     32 H32        -9.3062    2.4129   52.2456 H       1  ZINC000938043669    0.1000
     33 H33        -8.8189    1.5305   53.7127 H       1  ZINC000938043669    0.1000
     34 H34        -4.8513    2.7358   52.0247 H       1  ZINC000938043669    0.1400
     35 H35        -3.9264    4.8168   52.9596 H       1  ZINC000938043669    0.1300
     36 H36        -5.3449    6.2932   54.3241 H       1  ZINC000938043669    0.1400
     37 H37        -7.6924    5.6935   54.7595 H       1  ZINC000938043669    0.1500
     38 H38       -10.9376   -1.6357   51.0776 H       1  ZINC000938043669    0.0800
     39 H39        -9.6114   -2.4689   51.9352 H       1  ZINC000938043669    0.0800
     40 H40       -12.4858   -2.1068   52.7626 H       1  ZINC000938043669    0.0900
     41 H41       -11.3407   -3.4273   53.1679 H       1  ZINC000938043669    0.1000
     42 H42       -12.7690   -0.7042   55.2901 H       1  ZINC000938043669    0.4000
     43 H43       -12.9627   -0.4614   57.2334 H       1  ZINC000938043669    0.0700
     44 H44       -14.7365   -0.5646   57.3342 H       1  ZINC000938043669    0.0800
     45 H45       -11.6504   -1.5382   60.0862 H       1  ZINC000938043669    0.1200
     46 H46       -11.5742   -3.8342   59.0720 H       1  ZINC000938043669    0.1200
     47 H47       -15.7618   -3.5497   58.4307 H       1  ZINC000938043669    0.0700
     48 H48       -14.7932   -4.1260   59.8081 H       1  ZINC000938043669    0.0700
     49 H49       -14.8713   -2.0444   60.7206 H       1  ZINC000938043669    0.0700
     50 H50       -15.8427   -1.4787   59.3409 H       1  ZINC000938043669    0.0700
     51 H51        -9.9886    0.2585   54.5487 H       1  ZINC000938043669    0.0900
     52 H52       -11.5452    0.3967   53.6752 H       1  ZINC000938043669    0.0700
@<TRIPOS>BOND
     1     1     2    2
     2     2     3    1
     3     2    12   am
     4     3     4    1
     5     3    32    1
     6     3    33    1
     7     4     5    1
     8     5    10   ar
     9     5     6   ar
    10     6     7   ar
    11     6    34    1
    12     7     8   ar
    13     7    35    1
    14     8     9   ar
    15     8    36    1
    16     9    10   ar
    17     9    37    1
    18    10    11    1
    19    12    31    1
    20    12    13    1
    21    13    14    1
    22    13    38    1
    23    13    39    1
    24    14    15    1
    25    14    40    1
    26    14    41    1
    27    15    16    1
    28    15    17    1
    29    15    31    1
    30    17    18   am
    31    17    42    1
    32    18    19    2
    33    18    20    1
    34    20    21    1
    35    20    27    1
    36    20    22    1
    37    22    23    1
    38    22    43    1
    39    22    44    1
    40    23    24    1
    41    23    30    1
    42    23    25    1
    43    25    26    2
    44    25    45    1
    45    26    27    1
    46    26    46    1
    47    27    28    1
    48    27    29    1
    49    29    30    1
    50    29    47    1
    51    29    48    1
    52    30    49    1
    53    30    50    1
    54    31    51    1
    55    31    52    1
@<TRIPOS>SUBSTRUCTURE
     1 ZINC000938043669        1 TEMP              0 ****  ****    0 ROOT


##########                                Name:    ZINC001220171460
##########                DOCK_Rotatable_Bonds:                  10
##########                         Heavy_Atoms:                  25
##########                    Molecular_Weight:             383.773
##########                DOCK_Rotatable_Bonds:                  10
##########                       Formal_Charge:           0.0199996
##########                     HBond_Acceptors:                  10
##########                        HBond_Donors:                   3
##########                         Heavy_Atoms:                  25
##########                          Grid_Score:          -30.989035
##########                     Grid_vdw_energy:          -27.890095
##########                      Grid_es_energy:           -3.098940
##########           Internal_energy_repulsive:           10.981662

@<TRIPOS>MOLECULE
ZINC001220171460
 43 44 1 0 0
SMALL
USER_CHARGES


@<TRIPOS>ATOM
      1 C1         -2.0159   -1.6342   47.9738 C.3     1  ZINC001220171460    0.0200
      2 O2         -1.3340   -0.7012   48.8144 O.3     1  ZINC001220171460   -0.3100
      3 C3         -0.5128    0.1947   48.2035 C.ar    1  ZINC001220171460    0.1000
      4 C4          0.6984   -0.2215   47.6770 C.ar    1  ZINC001220171460   -0.1500
      5 C5          1.5335    0.6905   47.0557 C.ar    1  ZINC001220171460   -0.0600
      6 Cl6         3.0512    0.1660   46.3959 Cl      1  ZINC001220171460   -0.0400
      7 C7          1.1605    2.0210   46.9588 C.ar    1  ZINC001220171460    0.1000
      8 F8          1.9783    2.9082   46.3511 F       1  ZINC001220171460   -0.1200
      9 C9         -0.0490    2.4428   47.4832 C.ar    1  ZINC001220171460   -0.1200
     10 C10        -0.8916    1.5314   48.1016 C.ar    1  ZINC001220171460    0.1800
     11 N11        -2.1172    1.9566   48.6335 N.am    1  ZINC001220171460   -0.6700
     12 C12        -2.1519    2.5941   49.8204 C.2     1  ZINC001220171460    0.7100
     13 O13        -1.1203    2.8006   50.4299 O.2     1  ZINC001220171460   -0.5700
     14 N14        -3.3300    3.0029   50.3317 N.am    1  ZINC001220171460   -0.7400
     15 C15        -3.3679    3.6943   51.6227 C.3     1  ZINC001220171460    0.1400
     16 C16        -4.8222    3.9625   52.0151 C.3     1  ZINC001220171460   -0.1400
     17 C17        -4.8739    4.4930   53.4493 C.3     1  ZINC001220171460    0.0500
     18 H18        -5.9127    4.6365   53.7463 H       1  ZINC001220171460    0.1000
     19 N19        -4.2354    3.5261   54.3523 N.3     1  ZINC001220171460   -0.6500
     20 C20        -4.7969    3.6203   55.7065 C.3     1  ZINC001220171460    0.0100
     21 C21        -5.1452    2.3121   56.4195 C.3     1  ZINC001220171460   -0.2000
     22 C22        -3.9300    3.1272   56.8667 C.3     1  ZINC001220171460   -0.1600
     23 C23        -4.1324    5.8292   53.5259 C.3     1  ZINC001220171460    0.4600
     24 F24        -2.7888    5.5995   53.8403 F       1  ZINC001220171460   -0.1800
     25 F25        -4.2176    6.4813   52.2911 F       1  ZINC001220171460   -0.1800
     26 F26        -4.7131    6.6285   54.5164 F       1  ZINC001220171460   -0.1700
     27 H27        -2.6459   -1.0937   47.2673 H       1  ZINC001220171460    0.0600
     28 H28        -1.2862   -2.2312   47.4268 H       1  ZINC001220171460    0.0600
     29 H29        -2.6357   -2.2893   48.5860 H       1  ZINC001220171460    0.1100
     30 H30         0.9917   -1.2583   47.7517 H       1  ZINC001220171460    0.1500
     31 H31        -0.3384    3.4805   47.4071 H       1  ZINC001220171460    0.1800
     32 H32        -2.9402    1.7919   48.1472 H       1  ZINC001220171460    0.4200
     33 H33        -4.1529    2.8393   49.8448 H       1  ZINC001220171460    0.4000
     34 H34        -2.8955    3.0716   52.3824 H       1  ZINC001220171460    0.0800
     35 H35        -2.8324    4.6404   51.5439 H       1  ZINC001220171460    0.0700
     36 H36        -5.2506    4.7020   51.3386 H       1  ZINC001220171460    0.1000
     37 H37        -5.3930    3.0362   51.9495 H       1  ZINC001220171460    0.1000
     38 H38        -4.3159    2.5871   53.9921 H       1  ZINC001220171460    0.3600
     39 H39        -5.4409    4.4806   55.8897 H       1  ZINC001220171460    0.1200
     40 H40        -6.0184    2.3115   57.0718 H       1  ZINC001220171460    0.1000
     41 H41        -4.9576    1.3816   55.8837 H       1  ZINC001220171460    0.1000
     42 H42        -2.9430    2.7328   56.6251 H       1  ZINC001220171460    0.1000
     43 H43        -4.0038    3.6627   57.8132 H       1  ZINC001220171460    0.1000
@<TRIPOS>BOND
     1     1     2    1
     2     1    27    1
     3     1    28    1
     4     1    29    1
     5     2     3    1
     6     3    10   ar
     7     3     4   ar
     8     4     5   ar
     9     4    30    1
    10     5     6    1
    11     5     7   ar
    12     7     8    1
    13     7     9   ar
    14     9    10   ar
    15     9    31    1
    16    10    11    1
    17    11    12   am
    18    11    32    1
    19    12    13    2
    20    12    14   am
    21    14    15    1
    22    14    33    1
    23    15    16    1
    24    15    34    1
    25    15    35    1
    26    16    17    1
    27    16    36    1
    28    16    37    1
    29    17    18    1
    30    17    19    1
    31    17    23    1
    32    19    20    1
    33    19    38    1
    34    20    22    1
    35    20    21    1
    36    20    39    1
    37    21    22    1
    38    21    40    1
    39    21    41    1
    40    22    42    1
    41    22    43    1
    42    23    24    1
    43    23    25    1
    44    23    26    1
@<TRIPOS>SUBSTRUCTURE
     1 ZINC001220171460        1 TEMP              0 ****  ****    0 ROOT


##########                                Name:    ZINC000440379747
##########                DOCK_Rotatable_Bonds:                   8
##########                         Heavy_Atoms:                  27
##########                    Molecular_Weight:             394.452
##########                DOCK_Rotatable_Bonds:                   8
##########                       Formal_Charge:           0.0199995
##########                     HBond_Acceptors:                  10
##########                        HBond_Donors:                   3
##########                         Heavy_Atoms:                  27
##########                          Grid_Score:          -30.985802
##########                     Grid_vdw_energy:          -29.132708
##########                      Grid_es_energy:           -1.853095
##########           Internal_energy_repulsive:           18.967094

@<TRIPOS>MOLECULE
ZINC000440379747
 49 51 1 0 0
SMALL
USER_CHARGES


@<TRIPOS>ATOM
      1 C1          0.2080    1.9850   44.0138 C.3     1  ZINC000440379747   -0.1800
      2 C2         -0.6096    1.7669   45.2608 C.2     1  ZINC000440379747    0.5200
      3 O3         -1.3866    0.8374   45.3216 O.2     1  ZINC000440379747   -0.5200
      4 N4         -0.4777    2.6047   46.3083 N.am    1  ZINC000440379747   -0.5500
      5 C5          0.4245    3.7584   46.3528 C.3     1  ZINC000440379747    0.1100
      6 C6          0.2106    4.3847   47.7403 C.3     1  ZINC000440379747   -0.0900
      7 C7         -0.8316    3.5083   48.3979 C.ar    1  ZINC000440379747   -0.1100
      8 C8         -1.4172    3.5814   49.6459 C.ar    1  ZINC000440379747   -0.0700
      9 C9         -2.3671    2.6416   50.0259 C.ar    1  ZINC000440379747    0.1200
     10 N10        -2.9615    2.7144   51.2894 N.am    1  ZINC000440379747   -0.6400
     11 C11        -3.6910    3.7955   51.6296 C.2     1  ZINC000440379747    0.5100
     12 O12        -3.8318    4.7058   50.8391 O.2     1  ZINC000440379747   -0.4900
     13 C13        -4.3258    3.8733   52.9790 C.2     1  ZINC000440379747    0.5200
     14 O14        -5.5210    4.0594   53.0775 O.2     1  ZINC000440379747   -0.5100
     15 N15        -3.5714    3.7368   54.0875 N.am    1  ZINC000440379747   -0.5800
     16 C16        -2.1153    3.5076   54.1130 C.3     1  ZINC000440379747    0.1000
     17 C17        -1.6553    4.0335   55.4955 C.3     1  ZINC000440379747   -0.1300
     18 C18        -2.8443    3.6140   56.3998 C.3     1  ZINC000440379747   -0.1600
     19 C19        -4.0634    3.7980   55.4716 C.3     1  ZINC000440379747    0.1500
     20 H20        -4.5314    4.7640   55.6615 H       1  ZINC000440379747    0.1000
     21 C21        -5.0739    2.6744   55.7109 C.3     1  ZINC000440379747   -0.6500
     22 S22        -6.4340    3.2934   56.7394 S.o2    1  ZINC000440379747    2.6200
     23 N23        -5.6845    3.9702   58.0518 N.am    1  ZINC000440379747   -1.2500
     24 O24        -7.0823    4.3865   56.1038 O.2     1  ZINC000440379747   -0.9500
     25 O25        -7.1810    2.2129   57.2812 O.2     1  ZINC000440379747   -0.9500
     26 C26        -2.7238    1.6292   49.1439 C.ar    1  ZINC000440379747   -0.1000
     27 C27        -2.1381    1.5581   47.8989 C.ar    1  ZINC000440379747   -0.1400
     28 C28        -1.1870    2.5038   47.5107 C.ar    1  ZINC000440379747    0.1400
     29 H29        -0.0330    1.2142   43.2819 H       1  ZINC000440379747    0.1000
     30 H30        -0.0199    2.9659   43.5969 H       1  ZINC000440379747    0.1000
     31 H31         1.2683    1.9326   44.2609 H       1  ZINC000440379747    0.1000
     32 H32         1.4590    3.4338   46.2398 H       1  ZINC000440379747    0.0900
     33 H33         0.1641    4.4724   45.5715 H       1  ZINC000440379747    0.0900
     34 H34         1.1382    4.3668   48.3125 H       1  ZINC000440379747    0.0900
     35 H35        -0.1576    5.4060   47.6436 H       1  ZINC000440379747    0.1000
     36 H36        -1.1362    4.3702   50.3280 H       1  ZINC000440379747    0.1400
     37 H37        -2.8488    1.9870   51.9211 H       1  ZINC000440379747    0.4200
     38 H38        -1.8970    2.4438   54.0200 H       1  ZINC000440379747    0.0800
     39 H39        -1.6293    4.0668   53.3135 H       1  ZINC000440379747    0.1000
     40 H40        -0.7330    3.5461   55.8118 H       1  ZINC000440379747    0.1000
     41 H41        -1.5380    5.1171   55.4821 H       1  ZINC000440379747    0.0800
     42 H42        -2.7448    2.5740   56.7099 H       1  ZINC000440379747    0.1000
     43 H43        -2.9200    4.2706   57.2666 H       1  ZINC000440379747    0.1000
     44 H44        -5.4686    2.3311   54.7547 H       1  ZINC000440379747    0.1500
     45 H45        -4.5818    1.8456   56.2197 H       1  ZINC000440379747    0.1400
     46 H46        -6.2133    4.3750   58.7572 H       1  ZINC000440379747    0.4100
     47 H47        -4.7166    3.9621   58.1153 H       1  ZINC000440379747    0.4200
     48 H48        -3.4614    0.8961   49.4351 H       1  ZINC000440379747    0.1400
     49 H49        -2.4192    0.7686   47.2177 H       1  ZINC000440379747    0.1500
@<TRIPOS>BOND
     1     1     2    1
     2     1    29    1
     3     1    30    1
     4     1    31    1
     5     2     3    2
     6     2     4   am
     7     4    28    1
     8     4     5    1
     9     5     6    1
    10     5    32    1
    11     5    33    1
    12     6     7    1
    13     6    34    1
    14     6    35    1
    15     7    28   ar
    16     7     8   ar
    17     8     9   ar
    18     8    36    1
    19     9    10    1
    20     9    26   ar
    21    10    11   am
    22    10    37    1
    23    11    12    2
    24    11    13    1
    25    13    14    2
    26    13    15   am
    27    15    19    1
    28    15    16    1
    29    16    17    1
    30    16    38    1
    31    16    39    1
    32    17    18    1
    33    17    40    1
    34    17    41    1
    35    18    19    1
    36    18    42    1
    37    18    43    1
    38    19    20    1
    39    19    21    1
    40    21    22    1
    41    21    44    1
    42    21    45    1
    43    22    23   am
    44    22    24    2
    45    22    25    2
    46    23    46    1
    47    23    47    1
    48    26    27   ar
    49    26    48    1
    50    27    28   ar
    51    27    49    1
@<TRIPOS>SUBSTRUCTURE
     1 ZINC000440379747        1 TEMP              0 ****  ****    0 ROOT


##########                                Name:    ZINC000817655807
##########                DOCK_Rotatable_Bonds:                   3
##########                         Heavy_Atoms:                  24
##########                    Molecular_Weight:             352.774
##########                DOCK_Rotatable_Bonds:                   3
##########                       Formal_Charge:         3.35276e-07
##########                     HBond_Acceptors:                   8
##########                        HBond_Donors:                   0
##########                         Heavy_Atoms:                  24
##########                          Grid_Score:          -30.956432
##########                     Grid_vdw_energy:          -29.336782
##########                      Grid_es_energy:           -1.619649
##########           Internal_energy_repulsive:            2.431843

@<TRIPOS>MOLECULE
ZINC000817655807
 41 44 1 0 0
SMALL
USER_CHARGES


@<TRIPOS>ATOM
      1 C1         -6.5765    2.9947   52.8918 C.3     1  ZINC000817655807    0.1100
      2 N2         -5.5912    3.9716   52.4212 N.am    1  ZINC000817655807   -0.6400
      3 C3         -4.2727    3.6507   51.8458 C.3     1  ZINC000817655807    0.1000
      4 C4         -3.6797    5.0280   51.5352 C.3     1  ZINC000817655807    0.0500
      5 C5         -2.2619    5.2734   52.0518 C.3     1  ZINC000817655807    0.1200
      6 N6         -1.8158    4.8401   50.7111 N.am    1  ZINC000817655807   -0.6500
      7 C7         -0.6745    4.3174   50.2203 C.2     1  ZINC000817655807    0.5500
      8 O8          0.2656    4.1131   50.9588 O.2     1  ZINC000817655807   -0.5100
      9 C9         -0.5667    3.9869   48.7540 C.3     1  ZINC000817655807   -0.0900
     10 C10        -0.4007    2.4985   48.5854 C.ar    1  ZINC000817655807   -0.0600
     11 C11         0.8536    1.9661   48.3546 C.ar    1  ZINC000817655807   -0.0900
     12 C12         1.0094    0.6005   48.1973 C.ar    1  ZINC000817655807   -0.0300
     13 Cl13        2.5863   -0.0648   47.9070 Cl      1  ZINC000817655807   -0.0500
     14 C14        -0.0938   -0.2377   48.2717 C.ar    1  ZINC000817655807    0.0600
     15 O15         0.0734   -1.5786   48.1070 O.3     1  ZINC000817655807   -0.2900
     16 C16        -0.9941   -2.4203   48.5566 C.3     1  ZINC000817655807    0.0200
     17 C17        -2.3177   -1.8278   48.0541 C.3     1  ZINC000817655807    0.0200
     18 O18        -2.4490   -0.5063   48.5892 O.3     1  ZINC000817655807   -0.3000
     19 C19        -1.3541    0.2983   48.5075 C.ar    1  ZINC000817655807    0.0600
     20 C20        -1.5025    1.6679   48.6677 C.ar    1  ZINC000817655807   -0.0900
     21 C21        -3.1209    5.2081   50.1236 C.3     1  ZINC000817655807    0.1100
     22 O22        -4.6889    5.9763   51.9524 O.3     1  ZINC000817655807   -0.3000
     23 C23        -5.7436    5.3045   52.4382 C.2     1  ZINC000817655807    0.6400
     24 O24        -6.7418    5.8529   52.8617 O.2     1  ZINC000817655807   -0.5100
     25 H25        -7.4588    3.5176   53.2610 H       1  ZINC000817655807    0.0900
     26 H26        -6.8605    2.3396   52.0682 H       1  ZINC000817655807    0.0700
     27 H27        -6.1433    2.4002   53.6961 H       1  ZINC000817655807    0.0700
     28 H28        -3.6552    3.1208   52.5712 H       1  ZINC000817655807    0.1000
     29 H29        -4.3836    3.0651   50.9332 H       1  ZINC000817655807    0.1000
     30 H30        -2.0479    6.3196   52.2701 H       1  ZINC000817655807    0.1100
     31 H31        -1.9629    4.5993   52.8544 H       1  ZINC000817655807    0.1000
     32 H32        -1.4715    4.3120   48.2407 H       1  ZINC000817655807    0.1100
     33 H33         0.2964    4.4991   48.3286 H       1  ZINC000817655807    0.1100
     34 H34         1.7135    2.6170   48.2968 H       1  ZINC000817655807    0.1400
     35 H35        -0.8648   -3.4248   48.1538 H       1  ZINC000817655807    0.1300
     36 H36        -0.9985   -2.4581   49.6460 H       1  ZINC000817655807    0.0800
     37 H37        -2.3110   -1.7843   46.9650 H       1  ZINC000817655807    0.0800
     38 H38        -3.1492   -2.4457   48.3929 H       1  ZINC000817655807    0.1300
     39 H39        -2.4808    2.0863   48.8531 H       1  ZINC000817655807    0.1400
     40 H40        -3.5002    4.4825   49.4041 H       1  ZINC000817655807    0.1000
     41 H41        -3.1662    6.2346   49.7598 H       1  ZINC000817655807    0.1100
@<TRIPOS>BOND
     1     1     2    1
     2     1    25    1
     3     1    26    1
     4     1    27    1
     5     2    23   am
     6     2     3    1
     7     3     4    1
     8     3    28    1
     9     3    29    1
    10     4    21    1
    11     4     5    1
    12     4    22    1
    13     5     6    1
    14     5    30    1
    15     5    31    1
    16     6     7   am
    17     6    21    1
    18     7     8    2
    19     7     9    1
    20     9    10    1
    21     9    32    1
    22     9    33    1
    23    10    20   ar
    24    10    11   ar
    25    11    12   ar
    26    11    34    1
    27    12    13    1
    28    12    14   ar
    29    14    19   ar
    30    14    15    1
    31    15    16    1
    32    16    17    1
    33    16    35    1
    34    16    36    1
    35    17    18    1
    36    17    37    1
    37    17    38    1
    38    18    19    1
    39    19    20   ar
    40    20    39    1
    41    21    40    1
    42    21    41    1
    43    22    23    1
    44    23    24    2
@<TRIPOS>SUBSTRUCTURE
     1 ZINC000817655807        1 TEMP              0 ****  ****    0 ROOT


##########                                Name:    ZINC000530457945
##########                DOCK_Rotatable_Bonds:                   4
##########                         Heavy_Atoms:                  25
##########                    Molecular_Weight:             355.827
##########                DOCK_Rotatable_Bonds:                   4
##########                       Formal_Charge:           0.0199997
##########                     HBond_Acceptors:                   7
##########                        HBond_Donors:                   1
##########                         Heavy_Atoms:                  25
##########                          Grid_Score:          -30.948292
##########                     Grid_vdw_energy:          -29.809734
##########                      Grid_es_energy:           -1.138558
##########           Internal_energy_repulsive:           30.297853

@<TRIPOS>MOLECULE
ZINC000530457945
 43 46 1 0 0
SMALL
USER_CHARGES


@<TRIPOS>ATOM
      1 C1          0.7799    2.3497   46.3038 C.3     1  ZINC000530457945   -0.1700
      2 C2         -0.7174    2.2027   46.0259 C.3     1  ZINC000530457945    0.0900
      3 H3         -1.2418    3.1080   46.3317 H       1  ZINC000530457945    0.1100
      4 C4         -1.2771    0.9869   46.7940 C.3     1  ZINC000530457945   -0.1200
      5 H5         -0.4833    0.2748   47.0196 H       1  ZINC000530457945    0.1100
      6 C6         -1.9696    1.4279   48.0578 C.2     1  ZINC000530457945    0.5300
      7 O7         -2.9333    0.8156   48.4665 O.2     1  ZINC000530457945   -0.4700
      8 N8         -1.5177    2.5029   48.7337 N.am    1  ZINC000530457945   -0.6200
      9 C9         -2.1604    2.9126   49.9041 C.2     1  ZINC000530457945    0.4800
     10 N10        -3.3656    3.4417   49.9648 N.2     1  ZINC000530457945   -0.3000
     11 N11        -3.6305    3.7082   51.3157 N.pl3   1  ZINC000530457945   -0.2800
     12 C12        -4.6985    4.2432   51.9639 C.2     1  ZINC000530457945    0.1400
     13 C13        -4.6850    4.3885   53.3093 C.2     1  ZINC000530457945   -0.0800
     14 Cl14       -6.0584    5.0740   54.1200 Cl      1  ZINC000530457945   -0.0200
     15 C15        -3.5638    3.9859   54.0509 C.2     1  ZINC000530457945   -0.0500
     16 C16        -2.4897    3.4483   53.4083 C.2     1  ZINC000530457945   -0.0900
     17 C17        -2.5247    3.3068   52.0097 C.2     1  ZINC000530457945    0.3000
     18 N18        -1.6531    2.8240   51.1295 N.2     1  ZINC000530457945   -0.5500
     19 C19        -2.2923    0.3773   45.7918 C.3     1  ZINC000530457945   -0.1200
     20 C20        -1.5853    0.6309   44.4370 C.3     1  ZINC000530457945    0.0400
     21 N21        -0.9391    1.9558   44.5893 N.3     1  ZINC000530457945   -0.4900
     22 C22         0.2634    2.0105   43.8807 C.ar    1  ZINC000530457945    0.1000
     23 C23         0.5809    3.1382   43.1345 C.ar    1  ZINC000530457945   -0.1600
     24 C24         1.7709    3.1893   42.4355 C.ar    1  ZINC000530457945   -0.1100
     25 C25         2.6457    2.1191   42.4775 C.ar    1  ZINC000530457945   -0.1300
     26 C26         2.3327    0.9949   43.2194 C.ar    1  ZINC000530457945   -0.1100
     27 C27         1.1470    0.9396   43.9254 C.ar    1  ZINC000530457945   -0.1000
     28 H28         1.1932    3.1299   45.6646 H       1  ZINC000530457945    0.0700
     29 H29         0.9308    2.6186   47.3493 H       1  ZINC000530457945    0.0600
     30 H30         1.2825    1.4052   46.0954 H       1  ZINC000530457945    0.0600
     31 H31        -0.7461    2.9919   48.4075 H       1  ZINC000530457945    0.4300
     32 H32        -5.5653    4.5556   51.4005 H       1  ZINC000530457945    0.1800
     33 H33        -3.5524    4.1019   55.1246 H       1  ZINC000530457945    0.1600
     34 H34        -1.6203    3.1347   53.9670 H       1  ZINC000530457945    0.1700
     35 H35        -2.4239   -0.6899   45.9698 H       1  ZINC000530457945    0.0900
     36 H36        -3.2478    0.9000   45.8374 H       1  ZINC000530457945    0.0900
     37 H37        -0.8364   -0.1387   44.2499 H       1  ZINC000530457945    0.0700
     38 H38        -2.3145    0.6568   43.6274 H       1  ZINC000530457945    0.0900
     39 H39        -0.1021    3.9741   43.1006 H       1  ZINC000530457945    0.1200
     40 H40         2.0184    4.0658   41.8550 H       1  ZINC000530457945    0.1200
     41 H41         3.5753    2.1612   41.9294 H       1  ZINC000530457945    0.1200
     42 H42         3.0181    0.1608   43.2501 H       1  ZINC000530457945    0.1300
     43 H43         0.9033    0.0614   44.5048 H       1  ZINC000530457945    0.1300
@<TRIPOS>BOND
     1     1     2    1
     2     1    28    1
     3     1    29    1
     4     1    30    1
     5     2     3    1
     6     2    21    1
     7     2     4    1
     8     4     5    1
     9     4     6    1
    10     4    19    1
    11     6     7    2
    12     6     8   am
    13     8     9    1
    14     8    31    1
    15     9    18    1
    16     9    10    2
    17    10    11    1
    18    11    17    1
    19    11    12    1
    20    12    13    2
    21    12    32    1
    22    13    14    1
    23    13    15    1
    24    15    16    2
    25    15    33    1
    26    16    17    1
    27    16    34    1
    28    17    18    2
    29    19    20    1
    30    19    35    1
    31    19    36    1
    32    20    21    1
    33    20    37    1
    34    20    38    1
    35    21    22    1
    36    22    27   ar
    37    22    23   ar
    38    23    24   ar
    39    23    39    1
    40    24    25   ar
    41    24    40    1
    42    25    26   ar
    43    25    41    1
    44    26    27   ar
    45    26    42    1
    46    27    43    1
@<TRIPOS>SUBSTRUCTURE
     1 ZINC000530457945        1 TEMP              0 ****  ****    0 ROOT


##########                                Name:    ZINC000957079511
##########                DOCK_Rotatable_Bonds:                   8
##########                         Heavy_Atoms:                  25
##########                    Molecular_Weight:             362.453
##########                DOCK_Rotatable_Bonds:                   8
##########                       Formal_Charge:        -4.32134e-07
##########                     HBond_Acceptors:                   8
##########                        HBond_Donors:                   2
##########                         Heavy_Atoms:                  25
##########                          Grid_Score:          -30.939838
##########                     Grid_vdw_energy:          -26.998535
##########                      Grid_es_energy:           -3.941303
##########           Internal_energy_repulsive:            9.330446

@<TRIPOS>MOLECULE
ZINC000957079511
 47 49 1 0 0
SMALL
USER_CHARGES


@<TRIPOS>ATOM
      1 C1         -0.7560    5.8748   52.0365 C.3     1  ZINC000957079511   -0.0700
      2 C2         -1.2217    4.7746   52.9551 C.2     1  ZINC000957079511    0.0300
      3 C3         -2.1237    3.8211   52.6541 C.2     1  ZINC000957079511   -0.0200
      4 C4         -2.8522    3.6547   51.3454 C.3     1  ZINC000957079511   -0.0600
      5 C5         -1.9798    2.8972   50.3777 C.2     1  ZINC000957079511    0.5100
      6 O6         -0.7742    3.0209   50.4232 O.2     1  ZINC000957079511   -0.5200
      7 N7         -2.5395    2.0822   49.4617 N.am    1  ZINC000957079511   -0.7200
      8 C8         -1.6916    1.3472   48.5199 C.3     1  ZINC000957079511    0.1400
      9 H9         -0.8702    0.8541   49.0397 H       1  ZINC000957079511    0.1100
     10 C10        -1.1612    2.2819   47.4042 C.3     1  ZINC000957079511    0.0800
     11 N11        -0.8826    1.3891   46.2647 N.am    1  ZINC000957079511   -0.6200
     12 C12        -0.0116    1.6378   45.2666 C.2     1  ZINC000957079511    0.5400
     13 O13         0.1393    0.8270   44.3773 O.2     1  ZINC000957079511   -0.5100
     14 C14         0.7748    2.9233   45.2557 C.3     1  ZINC000957079511    0.0500
     15 O15         1.1380    3.2482   43.9123 O.3     1  ZINC000957079511   -0.2800
     16 C16         1.8552    4.3910   43.7247 C.2     1  ZINC000957079511    0.1200
     17 C17         2.0769    5.2707   44.7057 C.2     1  ZINC000957079511   -0.3300
     18 S18         3.0342    6.6118   44.0907 S.3     1  ZINC000957079511    0.1300
     19 C19         3.0827    5.8843   42.4903 C.2     1  ZINC000957079511   -0.1800
     20 C20         2.4164    4.7283   42.5024 C.2     1  ZINC000957079511   -0.1400
     21 C21        -1.7114    0.1820   46.3977 C.3     1  ZINC000957079511    0.1100
     22 C22        -2.5250    0.3257   47.7017 C.3     1  ZINC000957079511   -0.1100
     23 H23        -3.5201    0.7191   47.4940 H       1  ZINC000957079511    0.0900
     24 C24        -2.6169   -1.0152   48.4329 C.3     1  ZINC000957079511   -0.1400
     25 N25        -2.2515    3.0318   53.7650 N.pl3   1  ZINC000957079511   -0.5600
     26 C26        -1.4224    3.5308   54.7071 C.2     1  ZINC000957079511    0.2000
     27 N27        -0.8061    4.5701   54.2139 N.2     1  ZINC000957079511   -0.4900
     28 H28         0.1087    5.5320   51.4683 H       1  ZINC000957079511    0.0700
     29 H29        -1.5601    6.1397   51.3500 H       1  ZINC000957079511    0.0600
     30 H30        -0.4796    6.7484   52.6269 H       1  ZINC000957079511    0.0700
     31 H31        -3.7762    3.1010   51.5117 H       1  ZINC000957079511    0.1000
     32 H32        -3.0860    4.6359   50.9324 H       1  ZINC000957079511    0.1200
     33 H33        -3.5037    1.9823   49.4261 H       1  ZINC000957079511    0.4000
     34 H34        -1.9190    3.0173   47.1335 H       1  ZINC000957079511    0.0800
     35 H35        -0.2474    2.7795   47.7287 H       1  ZINC000957079511    0.0800
     36 H36         0.1652    3.7256   45.6713 H       1  ZINC000957079511    0.0900
     37 H37         1.6761    2.8030   45.8568 H       1  ZINC000957079511    0.0900
     38 H38         1.7221    5.1735   45.7212 H       1  ZINC000957079511    0.1700
     39 H39         3.5797    6.3070   41.6297 H       1  ZINC000957079511    0.1800
     40 H40         2.3155    4.1065   41.6251 H       1  ZINC000957079511    0.1500
     41 H41        -2.3868    0.1005   45.5461 H       1  ZINC000957079511    0.0800
     42 H42        -1.0744   -0.7006   46.4543 H       1  ZINC000957079511    0.0800
     43 H43        -1.6131   -1.3761   48.6573 H       1  ZINC000957079511    0.0600
     44 H44        -3.1724   -0.8851   49.3617 H       1  ZINC000957079511    0.0600
     45 H45        -3.1306   -1.7393   47.8006 H       1  ZINC000957079511    0.0700
     46 H46        -2.8295    2.2585   53.8584 H       1  ZINC000957079511    0.4200
     47 H47        -1.2885    3.1333   55.7023 H       1  ZINC000957079511    0.2100
@<TRIPOS>BOND
     1     1     2    1
     2     1    28    1
     3     1    29    1
     4     1    30    1
     5     2    27    1
     6     2     3    2
     7     3     4    1
     8     3    25    1
     9     4     5    1
    10     4    31    1
    11     4    32    1
    12     5     6    2
    13     5     7   am
    14     7     8    1
    15     7    33    1
    16     8     9    1
    17     8    22    1
    18     8    10    1
    19    10    11    1
    20    10    34    1
    21    10    35    1
    22    11    12   am
    23    11    21    1
    24    12    13    2
    25    12    14    1
    26    14    15    1
    27    14    36    1
    28    14    37    1
    29    15    16    1
    30    16    20    1
    31    16    17    2
    32    17    18    1
    33    17    38    1
    34    18    19    1
    35    19    20    2
    36    19    39    1
    37    20    40    1
    38    21    22    1
    39    21    41    1
    40    21    42    1
    41    22    23    1
    42    22    24    1
    43    24    43    1
    44    24    44    1
    45    24    45    1
    46    25    26    1
    47    25    46    1
    48    26    27    2
    49    26    47    1
@<TRIPOS>SUBSTRUCTURE
     1 ZINC000957079511        1 TEMP              0 ****  ****    0 ROOT


##########                                Name:    ZINC000291036115
##########                DOCK_Rotatable_Bonds:                   5
##########                         Heavy_Atoms:                  22
##########                    Molecular_Weight:             366.193
##########                DOCK_Rotatable_Bonds:                   5
##########                       Formal_Charge:                0.01
##########                     HBond_Acceptors:                   7
##########                        HBond_Donors:                   0
##########                         Heavy_Atoms:                  22
##########                          Grid_Score:          -30.933968
##########                     Grid_vdw_energy:          -30.613495
##########                      Grid_es_energy:           -0.320473
##########           Internal_energy_repulsive:            7.577347

@<TRIPOS>MOLECULE
ZINC000291036115
 35 37 1 0 0
SMALL
USER_CHARGES


@<TRIPOS>ATOM
      1 C1         -1.7583   -1.8324   47.6893 C.3     1  <0>        -0.1500
      2 C2         -1.5377   -0.3716   48.0874 C.3     1  <0>        -0.0400
      3 H3         -0.7910   -0.3198   48.8798 H       1  <0>         0.0900
      4 C4         -2.8547    0.2250   48.5878 C.3     1  <0>        -0.0200
      5 C5         -2.5756    1.5060   49.3309 C.2     1  <0>         0.1900
      6 N6         -3.3016    2.0259   50.2913 N.2     1  <0>        -0.4500
      7 C7         -2.6717    3.1593   50.6482 C.2     1  <0>         0.1500
      8 C8         -3.1111    4.1246   51.7189 C.3     1  <0>         0.2300
      9 N9         -2.5634    3.7034   53.0107 N.pl3   1  <0>        -0.3900
     10 C10        -3.1276    3.8737   54.2190 C.2     1  <0>         0.2600
     11 N11        -2.3268    3.3598   55.1170 N.2     1  <0>        -0.5400
     12 C12        -1.2465    2.8546   54.5229 C.2     1  <0>         0.2000
     13 N13        -1.3477    3.0361   53.2324 N.2     1  <0>        -0.3100
     14 N14        -1.6145    3.2690   49.9007 N.2     1  <0>        -0.3600
     15 O15        -1.5378    2.3263   49.1411 O.3     1  <0>         0.0900
     16 C16        -1.0557    0.4077   46.8910 C.ar    1  <0>        -0.0900
     17 C17        -1.8795    0.5662   45.7925 C.ar    1  <0>        -0.0700
     18 C18        -1.4391    1.2811   44.6945 C.ar    1  <0>        -0.1400
     19 C19        -0.1723    1.8388   44.6949 C.ar    1  <0>         0.1300
     20 F20         0.2589    2.5380   43.6224 F       1  <0>        -0.1200
     21 C21         0.6531    1.6795   45.7965 C.ar    1  <0>        -0.1300
     22 Br22        2.3840    2.4408   45.7997 Br      1  <0>        -0.0200
     23 C23         0.2081    0.9684   46.8955 C.ar    1  <0>        -0.0500
     24 H24        -2.1069   -2.3961   48.5547 H       1  <0>         0.0600
     25 H25        -2.5049   -1.8843   46.8970 H       1  <0>         0.0700
     26 H26        -0.8200   -2.2575   47.3328 H       1  <0>         0.0700
     27 H27        -3.5057    0.4322   47.7384 H       1  <0>         0.1200
     28 H28        -3.3438   -0.4835   49.2562 H       1  <0>         0.1100
     29 H29        -2.7477    5.1238   51.4786 H       1  <0>         0.1300
     30 H30        -4.1997    4.1370   51.7724 H       1  <0>         0.1200
     31 H31        -4.0761    4.3520   54.4144 H       1  <0>         0.2200
     32 H32        -0.4227    2.3698   55.0257 H       1  <0>         0.2200
     33 H33        -2.8679    0.1308   45.7920 H       1  <0>         0.1400
     34 H34        -2.0832    1.4044   43.8364 H       1  <0>         0.1500
     35 H35         0.8510    0.8439   47.7543 H       1  <0>         0.1400
@<TRIPOS>BOND
     1     1     2    1
     2     1    24    1
     3     1    25    1
     4     1    26    1
     5     2     3    1
     6     2     4    1
     7     2    16    1
     8     4     5    1
     9     4    27    1
    10     4    28    1
    11     5    15    1
    12     5     6    2
    13     6     7    1
    14     7     8    1
    15     7    14    2
    16     8     9    1
    17     8    29    1
    18     8    30    1
    19     9    13    1
    20     9    10    1
    21    10    11    2
    22    10    31    1
    23    11    12    1
    24    12    13    2
    25    12    32    1
    26    14    15    1
    27    16    23   ar
    28    16    17   ar
    29    17    18   ar
    30    17    33    1
    31    18    19   ar
    32    18    34    1
    33    19    20    1
    34    19    21   ar
    35    21    22    1
    36    21    23   ar
    37    23    35    1
@<TRIPOS>SUBSTRUCTURE
     1 <0>         1 TEMP              0 ****  ****    0 ROOT


##########                                Name:    ZINC000432833246
##########                DOCK_Rotatable_Bonds:                   5
##########                         Heavy_Atoms:                  25
##########                    Molecular_Weight:             400.318
##########                DOCK_Rotatable_Bonds:                   5
##########                       Formal_Charge:        -3.20375e-07
##########                     HBond_Acceptors:                   4
##########                        HBond_Donors:                   1
##########                         Heavy_Atoms:                  25
##########                          Grid_Score:          -30.926380
##########                     Grid_vdw_energy:          -30.456100
##########                      Grid_es_energy:           -0.470279
##########           Internal_energy_repulsive:            6.877350

@<TRIPOS>MOLECULE
ZINC000432833246
 47 51 1 0 0
SMALL
USER_CHARGES


@<TRIPOS>ATOM
      1 O1         -7.2271    2.9587   53.3612 O.2     1  ZINC000432833246   -0.5200
      2 C2         -6.0610    3.2920   53.3744 C.2     1  ZINC000432833246    0.5200
      3 C3         -5.2030    3.4922   52.1446 C.3     1  ZINC000432833246   -0.1500
      4 C4         -3.9856    4.2954   52.6584 C.3     1  ZINC000432833246   -0.1100
      5 H5         -4.1444    5.3666   52.5340 H       1  ZINC000432833246    0.1000
      6 C6         -2.7006    3.8501   51.9573 C.3     1  ZINC000432833246    0.1300
      7 N7         -2.7316    4.2849   50.5586 N.pl3   1  ZINC000432833246   -0.7200
      8 C8         -2.1993    3.4733   49.5684 C.ar    1  ZINC000432833246    0.2800
      9 C9         -1.3096    3.9932   48.5983 C.ar    1  ZINC000432833246   -0.1500
     10 C10        -0.9335    5.3436   48.6025 C.ar    1  ZINC000432833246   -0.0700
     11 C11        -0.0742    5.8069   47.6521 C.ar    1  ZINC000432833246   -0.1300
     12 C12         0.4359    4.9556   46.6751 C.ar    1  ZINC000432833246   -0.0600
     13 C13         0.0912    3.6383   46.6424 C.ar    1  ZINC000432833246   -0.0800
     14 Br14        0.7994    2.5047   45.3046 Br      1  ZINC000432833246   -0.0300
     15 C15        -0.7931    3.1244   47.6077 C.ar    1  ZINC000432833246    0.1900
     16 N16        -1.1482    1.8346   47.5995 N.ar    1  ZINC000432833246   -0.5000
     17 C17        -1.9724    1.3407   48.4941 C.ar    1  ZINC000432833246    0.2400
     18 C18        -2.3325   -0.1212   48.4297 C.3     1  ZINC000432833246   -0.1100
     19 C19        -2.4930   -0.7487   47.0435 C.3     1  ZINC000432833246   -0.1700
     20 C20        -1.2712   -1.0876   47.8999 C.3     1  ZINC000432833246   -0.1600
     21 C21        -2.5174    2.1259   49.5006 C.ar    1  ZINC000432833246   -0.2700
     22 C22        -3.9624    3.9099   54.1541 C.3     1  ZINC000432833246    0.1100
     23 N23        -5.3446    3.5428   54.4838 N.am    1  ZINC000432833246   -0.5900
     24 C24        -5.8731    3.4524   55.8471 C.3     1  ZINC000432833246    0.0800
     25 C25        -5.8785    2.0749   56.5129 C.3     1  ZINC000432833246   -0.1900
     26 C26        -4.8815    3.1417   56.9701 C.3     1  ZINC000432833246   -0.1900
     27 H27        -4.8835    2.5311   51.7418 H       1  ZINC000432833246    0.1100
     28 H28        -5.7451    4.0621   51.3900 H       1  ZINC000432833246    0.1000
     29 H29        -1.8407    4.2959   52.4574 H       1  ZINC000432833246    0.0800
     30 H30        -2.6220    2.7637   51.9984 H       1  ZINC000432833246    0.0700
     31 H31        -3.1244    5.1406   50.3254 H       1  ZINC000432833246    0.4000
     32 H32        -1.3233    6.0133   49.3548 H       1  ZINC000432833246    0.1300
     33 H33         0.2148    6.8476   47.6562 H       1  ZINC000432833246    0.1400
     34 H34         1.1150    5.3460   45.9317 H       1  ZINC000432833246    0.1400
     35 H35        -2.9879   -0.4794   49.2235 H       1  ZINC000432833246    0.1300
     36 H36        -3.2542   -1.5199   46.9252 H       1  ZINC000432833246    0.1000
     37 H37        -2.3380   -0.1042   46.1782 H       1  ZINC000432833246    0.1000
     38 H38        -0.3125   -0.6660   47.5981 H       1  ZINC000432833246    0.0900
     39 H39        -1.2287   -2.0816   48.3450 H       1  ZINC000432833246    0.1000
     40 H40        -3.1923    1.6908   50.2226 H       1  ZINC000432833246    0.1400
     41 H41        -3.2947    3.0635   54.3151 H       1  ZINC000432833246    0.0800
     42 H42        -3.6465    4.7606   54.7579 H       1  ZINC000432833246    0.0900
     43 H43        -6.6987    4.1260   56.0769 H       1  ZINC000432833246    0.1300
     44 H44        -6.7078    1.8419   57.1808 H       1  ZINC000432833246    0.1000
     45 H45        -5.4888    1.2358   55.9366 H       1  ZINC000432833246    0.1300
     46 H46        -3.8359    3.0043   56.6945 H       1  ZINC000432833246    0.0900
     47 H47        -5.0550    3.6105   57.9387 H       1  ZINC000432833246    0.1000
@<TRIPOS>BOND
     1     1     2    2
     2     2    23   am
     3     2     3    1
     4     3     4    1
     5     3    27    1
     6     3    28    1
     7     4     5    1
     8     4     6    1
     9     4    22    1
    10     6     7    1
    11     6    29    1
    12     6    30    1
    13     7     8    1
    14     7    31    1
    15     8    21   ar
    16     8     9   ar
    17     9    15   ar
    18     9    10   ar
    19    10    11   ar
    20    10    32    1
    21    11    12   ar
    22    11    33    1
    23    12    13   ar
    24    12    34    1
    25    13    14    1
    26    13    15   ar
    27    15    16   ar
    28    16    17   ar
    29    17    18    1
    30    17    21   ar
    31    18    20    1
    32    18    19    1
    33    18    35    1
    34    19    20    1
    35    19    36    1
    36    19    37    1
    37    20    38    1
    38    20    39    1
    39    21    40    1
    40    22    23    1
    41    22    41    1
    42    22    42    1
    43    23    24    1
    44    24    26    1
    45    24    25    1
    46    24    43    1
    47    25    26    1
    48    25    44    1
    49    25    45    1
    50    26    46    1
    51    26    47    1
@<TRIPOS>SUBSTRUCTURE
     1 ZINC000432833246        1 TEMP              0 ****  ****    0 ROOT


##########                                Name:    ZINC000771225867
##########                DOCK_Rotatable_Bonds:                   9
##########                         Heavy_Atoms:                  23
##########                    Molecular_Weight:             355.802
##########                DOCK_Rotatable_Bonds:                   9
##########                       Formal_Charge:        -3.12924e-07
##########                     HBond_Acceptors:                   9
##########                        HBond_Donors:                   3
##########                         Heavy_Atoms:                  23
##########                          Grid_Score:          -30.916491
##########                     Grid_vdw_energy:          -30.089554
##########                      Grid_es_energy:           -0.826937
##########           Internal_energy_repulsive:            9.339455

@<TRIPOS>MOLECULE
ZINC000771225867
 37 38 1 0 0
SMALL
USER_CHARGES


@<TRIPOS>ATOM
      1 C1         -9.6931    0.9496   57.1080 C.3     1  ZINC000771225867    0.0400
      2 O2         -8.5590    1.5241   56.4553 O.3     1  ZINC000771225867   -0.3600
      3 C3         -8.6129    1.6272   55.1106 C.2     1  ZINC000771225867    0.5500
      4 O4         -9.5771    1.1965   54.5055 O.2     1  ZINC000771225867   -0.4900
      5 C5         -7.5481    2.2359   54.4043 C.2     1  ZINC000771225867   -0.3400
      6 C6         -6.4494    2.8373   54.9605 C.2     1  ZINC000771225867    0.2700
      7 Cl7        -6.1948    2.9431   56.6744 Cl      1  ZINC000771225867    0.0400
      8 N8         -5.6091    3.3244   54.0829 N.2     1  ZINC000771225867   -0.5500
      9 C9         -5.9113    3.1820   52.8240 C.2     1  ZINC000771225867    0.3400
     10 N10        -5.1394    3.6336   51.7757 N.pl3   1  ZINC000771225867   -0.6700
     11 C11        -3.7049    3.8605   51.9670 C.3     1  ZINC000771225867    0.1700
     12 C12        -2.9654    3.4901   50.7073 C.ar    1  ZINC000771225867   -0.0800
     13 C13        -2.1600    4.4222   50.0797 C.ar    1  ZINC000771225867   -0.1300
     14 C14        -1.4801    4.0854   48.9236 C.ar    1  ZINC000771225867   -0.0800
     15 C15        -1.6042    2.8162   48.3929 C.ar    1  ZINC000771225867   -0.2000
     16 C16        -2.4118    1.8788   49.0208 C.ar    1  ZINC000771225867    0.1300
     17 O17        -2.5352    0.6293   48.5008 O.3     1  ZINC000771225867   -0.2900
     18 C18        -1.3410    0.0020   48.0295 C.3     1  ZINC000771225867    0.0400
     19 C19        -1.4794   -1.4940   48.1470 C.2     1  ZINC000771225867    0.5200
     20 N20        -0.3856   -2.2596   48.3320 N.am    1  ZINC000771225867   -0.8500
     21 O21        -2.5751   -2.0091   48.0750 O.2     1  ZINC000771225867   -0.5200
     22 C22        -3.0884    2.2174   50.1835 C.ar    1  ZINC000771225867   -0.1200
     23 S23        -7.3941    2.3495   52.6530 S.3     1  ZINC000771225867    0.2200
     24 H24       -10.5775    1.5503   56.8954 H       1  ZINC000771225867    0.0600
     25 H25        -9.8470   -0.0657   56.7424 H       1  ZINC000771225867    0.0600
     26 H26        -9.5198    0.9260   58.1839 H       1  ZINC000771225867    0.1000
     27 H27        -5.5460    3.8014   50.9112 H       1  ZINC000771225867    0.4200
     28 H28        -3.5305    4.9122   52.1948 H       1  ZINC000771225867    0.0900
     29 H29        -3.3467    3.2457   52.7927 H       1  ZINC000771225867    0.0900
     30 H30        -2.0620    5.4151   50.4929 H       1  ZINC000771225867    0.1300
     31 H31        -0.8518    4.8154   48.4351 H       1  ZINC000771225867    0.1300
     32 H32        -1.0732    2.5539   47.4898 H       1  ZINC000771225867    0.1300
     33 H33        -1.1768    0.2709   46.9861 H       1  ZINC000771225867    0.1000
     34 H34        -0.4940    0.3366   48.6285 H       1  ZINC000771225867    0.1000
     35 H35        -0.4749   -3.2224   48.4087 H       1  ZINC000771225867    0.4000
     36 H36         0.4907   -1.8477   48.3884 H       1  ZINC000771225867    0.4100
     37 H37        -3.7177    1.4896   50.6741 H       1  ZINC000771225867    0.1400
@<TRIPOS>BOND
     1     1     2    1
     2     1    24    1
     3     1    25    1
     4     1    26    1
     5     2     3    1
     6     3     4    2
     7     3     5    1
     8     5    23    1
     9     5     6    2
    10     6     7    1
    11     6     8    1
    12     8     9    2
    13     9    10    1
    14     9    23    1
    15    10    11    1
    16    10    27    1
    17    11    12    1
    18    11    28    1
    19    11    29    1
    20    12    22   ar
    21    12    13   ar
    22    13    14   ar
    23    13    30    1
    24    14    15   ar
    25    14    31    1
    26    15    16   ar
    27    15    32    1
    28    16    17    1
    29    16    22   ar
    30    17    18    1
    31    18    19    1
    32    18    33    1
    33    18    34    1
    34    19    20   am
    35    19    21    2
    36    20    35    1
    37    20    36    1
    38    22    37    1
@<TRIPOS>SUBSTRUCTURE
     1 ZINC000771225867        1 TEMP              0 ****  ****    0 ROOT


##########                                Name:    ZINC000328606936
##########                DOCK_Rotatable_Bonds:                   6
##########                         Heavy_Atoms:                  23
##########                    Molecular_Weight:             338.428
##########                DOCK_Rotatable_Bonds:                   6
##########                       Formal_Charge:           0.0100001
##########                     HBond_Acceptors:                   7
##########                        HBond_Donors:                   2
##########                         Heavy_Atoms:                  23
##########                          Grid_Score:          -30.916101
##########                     Grid_vdw_energy:          -29.882177
##########                      Grid_es_energy:           -1.033925
##########           Internal_energy_repulsive:            7.564087

@<TRIPOS>MOLECULE
ZINC000328606936
 45 47 1 0 0
SMALL
USER_CHARGES


@<TRIPOS>ATOM
      1 C1         -3.0008    0.2181   48.6112 C.3     1  <0>        -0.0500
      2 N2         -2.0490    1.0651   47.8801 N.4     1  <0>        -0.3500
      3 H3         -2.5533    1.7738   47.3687 H       1  <0>         0.4200
      4 C4         -1.2789    0.2385   46.9411 C.3     1  <0>        -0.0900
      5 C5         -2.2253   -0.5114   46.0394 C.2     1  <0>         0.4900
      6 O6         -2.6538   -1.6017   46.3772 O.co2   1  <0>        -0.6700
      7 O7         -2.5624   -0.0278   44.9721 O.co2   1  <0>        -0.6400
      8 C8         -1.1329    1.7070   48.8324 C.3     1  <0>         0.0100
      9 H9         -0.5900    0.9526   49.4020 H       1  <0>         0.1600
     10 C10        -1.9141    2.6387   49.7837 C.3     1  <0>         0.1000
     11 N11        -1.0175    3.8000   49.9893 N.am    1  <0>        -0.6200
     12 C12        -0.7956    4.4814   51.1307 C.2     1  <0>         0.6200
     13 O13        -0.0224    5.4213   51.1379 O.2     1  <0>        -0.5100
     14 C14        -1.4854    4.0905   52.3636 C.2     1  <0>        -0.2800
     15 C15        -0.8825    3.6295   53.4936 C.2     1  <0>        -0.0300
     16 C16        -1.7598    3.3295   54.5195 C.2     1  <0>        -0.1200
     17 C17        -3.0584    3.5491   54.2124 C.2     1  <0>        -0.1900
     18 C18        -4.2158    3.3011   55.1614 C.3     1  <0>        -0.0500
     19 C19        -3.7319    2.4048   56.3042 C.3     1  <0>        -0.1200
     20 C20        -2.4396    2.9887   56.8825 C.3     1  <0>        -0.1200
     21 C21        -1.3057    2.7989   55.8733 C.3     1  <0>        -0.0600
     22 S22        -3.2213    4.1490   52.6220 S.3     1  <0>         0.2000
     23 C23        -0.4201    4.0424   48.6555 C.3     1  <0>         0.0600
     24 C24        -0.1460    2.6303   48.0881 C.3     1  <0>         0.0800
     25 H25        -0.3417    2.6081   47.0161 H       1  <0>         0.1000
     26 O26         1.2030    2.2412   48.3542 O.3     1  <0>        -0.5400
     27 H27        -2.4560   -0.5475   49.1636 H       1  <0>         0.1100
     28 H28        -3.5722    0.8315   49.3079 H       1  <0>         0.1100
     29 H29        -3.6805   -0.2581   47.9046 H       1  <0>         0.1600
     30 H30        -0.6334    0.8780   46.3391 H       1  <0>         0.1200
     31 H31        -0.6686   -0.4720   47.4986 H       1  <0>         0.1300
     32 H32        -2.8485    2.9571   49.3216 H       1  <0>         0.1000
     33 H33        -2.1095    2.1370   50.7315 H       1  <0>         0.1200
     34 H34         0.1871    3.5084   53.5811 H       1  <0>         0.1500
     35 H35        -4.5674    4.2505   55.5652 H       1  <0>         0.0900
     36 H36        -5.0268    2.8061   54.6271 H       1  <0>         0.0800
     37 H37        -4.4936    2.3631   57.0827 H       1  <0>         0.0700
     38 H38        -3.5407    1.4011   55.9247 H       1  <0>         0.0700
     39 H39        -2.5771    4.0517   57.0808 H       1  <0>         0.0700
     40 H40        -2.1908    2.4737   57.8104 H       1  <0>         0.0700
     41 H41        -1.0650    1.7391   55.7891 H       1  <0>         0.0800
     42 H42        -0.4257    3.3502   56.2044 H       1  <0>         0.0800
     43 H43        -1.1211    4.5799   48.0170 H       1  <0>         0.1000
     44 H44         0.5117    4.5997   48.7519 H       1  <0>         0.1000
     45 H45         1.3825    1.3055   48.1884 H       1  <0>         0.4000
@<TRIPOS>BOND
     1     1     2    1
     2     1    27    1
     3     1    28    1
     4     1    29    1
     5     2     3    1
     6     2     4    1
     7     2     8    1
     8     4     5    1
     9     4    30    1
    10     4    31    1
    11     5     6   ar
    12     5     7   ar
    13     8     9    1
    14     8    24    1
    15     8    10    1
    16    10    11    1
    17    10    32    1
    18    10    33    1
    19    11    12   am
    20    11    23    1
    21    12    13    2
    22    12    14    1
    23    14    22    1
    24    14    15    2
    25    15    16    1
    26    15    34    1
    27    16    21    1
    28    16    17    2
    29    17    18    1
    30    17    22    1
    31    18    19    1
    32    18    35    1
    33    18    36    1
    34    19    20    1
    35    19    37    1
    36    19    38    1
    37    20    21    1
    38    20    39    1
    39    20    40    1
    40    21    41    1
    41    21    42    1
    42    23    24    1
    43    23    43    1
    44    23    44    1
    45    24    25    1
    46    24    26    1
    47    26    45    1
@<TRIPOS>SUBSTRUCTURE
     1 <0>         1 TEMP              0 ****  ****    0 ROOT


##########                                Name:    ZINC001291841503
##########                DOCK_Rotatable_Bonds:                   7
##########                         Heavy_Atoms:                  28
##########                    Molecular_Weight:             397.544
##########                DOCK_Rotatable_Bonds:                   7
##########                       Formal_Charge:         -0.00999964
##########                     HBond_Acceptors:                   7
##########                        HBond_Donors:                   0
##########                         Heavy_Atoms:                  28
##########                          Grid_Score:          -30.884317
##########                     Grid_vdw_energy:          -29.866030
##########                      Grid_es_energy:           -1.018288
##########           Internal_energy_repulsive:           17.190243

@<TRIPOS>MOLECULE
ZINC001291841503
 55 58 1 0 0
SMALL
USER_CHARGES


@<TRIPOS>ATOM
      1 C1          0.6003    2.7230   46.0637 C.3     1  ZINC001291841503   -0.1500
      2 C2         -0.7549    2.6360   46.7687 C.3     1  ZINC001291841503   -0.1100
      3 C3         -0.5719    2.0029   48.1494 C.3     1  ZINC001291841503    0.0500
      4 H4          0.4464    2.1774   48.4971 H       1  ZINC001291841503    0.0900
      5 C5         -1.5463    2.6211   49.1186 C.2     1  ZINC001291841503    0.2000
      6 N6         -2.6074    2.0514   49.6158 N.2     1  ZINC001291841503   -0.2700
      7 N7         -3.2121    2.8619   50.4091 N.2     1  ZINC001291841503   -0.3100
      8 C8         -2.5638    4.0016   50.4611 C.2     1  ZINC001291841503    0.3600
      9 N9         -2.9131    5.1147   51.2091 N.3     1  ZINC001291841503   -0.4500
     10 C10        -3.9934    5.8682   50.5587 C.3     1  ZINC001291841503    0.0200
     11 C11        -3.2873    4.7332   52.5774 C.3     1  ZINC001291841503    0.0700
     12 H12        -4.2125    4.1570   52.5785 H       1  ZINC001291841503    0.0800
     13 C13        -2.1414    3.9399   53.2629 C.3     1  ZINC001291841503   -0.1400
     14 C14        -2.3969    4.2820   54.7524 C.3     1  ZINC001291841503    0.0500
     15 O15        -2.8390    5.6488   54.7529 O.3     1  ZINC001291841503   -0.3800
     16 C16        -3.4150    5.9793   53.4798 C.3     1  ZINC001291841503    0.0600
     17 N17        -1.4776    3.8816   49.6440 N.pl3   1  ZINC001291841503   -0.4700
     18 C18        -0.4551    4.8963   49.3773 C.3     1  ZINC001291841503    0.1900
     19 C19         0.5192    4.9419   50.5261 C.2     1  ZINC001291841503   -0.2700
     20 C20         1.5086    4.0726   50.7529 C.2     1  ZINC001291841503    0.0800
     21 N21         2.2259    4.3294   51.8281 N.2     1  ZINC001291841503   -0.4800
     22 C22         1.8967    5.3669   52.5210 C.2     1  ZINC001291841503    0.0500
     23 C23         2.5939    5.8220   53.7771 C.3     1  ZINC001291841503   -0.0800
     24 S24         0.5597    6.1549   51.8035 S.3     1  ZINC001291841503    0.1800
     25 C25        -0.8249    0.5201   48.0597 C.ar    1  ZINC001291841503   -0.0900
     26 C26         0.1641   -0.3733   48.4267 C.ar    1  ZINC001291841503   -0.0900
     27 C27        -0.0680   -1.7335   48.3444 C.ar    1  ZINC001291841503   -0.1200
     28 C28        -1.2892   -2.2004   47.8957 C.ar    1  ZINC001291841503   -0.1200
     29 C29        -2.2786   -1.3071   47.5296 C.ar    1  ZINC001291841503   -0.1200
     30 C30        -2.0480    0.0532   47.6159 C.ar    1  ZINC001291841503   -0.1100
     31 H31         1.2797    3.3351   46.6570 H       1  ZINC001291841503    0.0500
     32 H32         1.0167    1.7219   45.9522 H       1  ZINC001291841503    0.0500
     33 H33         0.4699    3.1741   45.0801 H       1  ZINC001291841503    0.0600
     34 H34        -1.1713    3.6371   46.8804 H       1  ZINC001291841503    0.0800
     35 H35        -1.4343    2.0240   46.1754 H       1  ZINC001291841503    0.0800
     36 H36        -4.8984    5.2608   50.5373 H       1  ZINC001291841503    0.0500
     37 H37        -4.1842    6.7848   51.1168 H       1  ZINC001291841503    0.0900
     38 H38        -3.6995    6.1181   49.5392 H       1  ZINC001291841503    0.0700
     39 H39        -2.2421    2.8696   53.0828 H       1  ZINC001291841503    0.0900
     40 H40        -1.1653    4.3008   52.9389 H       1  ZINC001291841503    0.0800
     41 H41        -3.1717    3.6337   55.1618 H       1  ZINC001291841503    0.0700
     42 H42        -1.4761    4.1819   55.3270 H       1  ZINC001291841503    0.0900
     43 H43        -2.8725    6.8128   53.0336 H       1  ZINC001291841503    0.0800
     44 H44        -4.4645    6.2452   53.6066 H       1  ZINC001291841503    0.0700
     45 H45         0.0766    4.6440   48.4599 H       1  ZINC001291841503    0.1100
     46 H46        -0.9307    5.8707   49.2654 H       1  ZINC001291841503    0.1100
     47 H47         1.7043    3.2289   50.1078 H       1  ZINC001291841503    0.1700
     48 H48         3.3990    6.5093   53.5171 H       1  ZINC001291841503    0.0900
     49 H49         1.8795    6.3282   54.4262 H       1  ZINC001291841503    0.0800
     50 H50         3.0078    4.9577   54.2966 H       1  ZINC001291841503    0.0900
     51 H51         1.1182   -0.0085   48.7773 H       1  ZINC001291841503    0.1300
     52 H52         0.7050   -2.4314   48.6305 H       1  ZINC001291841503    0.1200
     53 H53        -1.4704   -3.2631   47.8307 H       1  ZINC001291841503    0.1200
     54 H54        -3.2326   -1.6719   47.1787 H       1  ZINC001291841503    0.1200
     55 H55        -2.8210    0.7512   47.3299 H       1  ZINC001291841503    0.1200
@<TRIPOS>BOND
     1     1     2    1
     2     1    31    1
     3     1    32    1
     4     1    33    1
     5     2     3    1
     6     2    34    1
     7     2    35    1
     8     3     4    1
     9     3     5    1
    10     3    25    1
    11     5    17    1
    12     5     6    2
    13     6     7    1
    14     7     8    2
    15     8     9    1
    16     8    17    1
    17     9    10    1
    18     9    11    1
    19    10    36    1
    20    10    37    1
    21    10    38    1
    22    11    12    1
    23    11    16    1
    24    11    13    1
    25    13    14    1
    26    13    39    1
    27    13    40    1
    28    14    15    1
    29    14    41    1
    30    14    42    1
    31    15    16    1
    32    16    43    1
    33    16    44    1
    34    17    18    1
    35    18    19    1
    36    18    45    1
    37    18    46    1
    38    19    24    1
    39    19    20    2
    40    20    21    1
    41    20    47    1
    42    21    22    2
    43    22    23    1
    44    22    24    1
    45    23    48    1
    46    23    49    1
    47    23    50    1
    48    25    30   ar
    49    25    26   ar
    50    26    27   ar
    51    26    51    1
    52    27    28   ar
    53    27    52    1
    54    28    29   ar
    55    28    53    1
    56    29    30   ar
    57    29    54    1
    58    30    55    1
@<TRIPOS>SUBSTRUCTURE
     1 ZINC001291841503        1 TEMP              0 ****  ****    0 ROOT


##########                                Name:    ZINC000081577146
##########                DOCK_Rotatable_Bonds:                   4
##########                         Heavy_Atoms:                  25
##########                    Molecular_Weight:             355.464
##########                DOCK_Rotatable_Bonds:                   4
##########                       Formal_Charge:                0.02
##########                     HBond_Acceptors:                   7
##########                        HBond_Donors:                   0
##########                         Heavy_Atoms:                  25
##########                          Grid_Score:          -30.882353
##########                     Grid_vdw_energy:          -30.081057
##########                      Grid_es_energy:           -0.801296
##########           Internal_energy_repulsive:           14.235471

@<TRIPOS>MOLECULE
ZINC000081577146
 46 49 1 0 0
SMALL
USER_CHARGES


@<TRIPOS>ATOM
      1 C1        -13.9485   -0.5345   50.9163 C.3     1  ZINC000081577146   -0.0700
      2 C2        -12.5321   -0.6064   51.4260 C.2     1  ZINC000081577146    0.2900
      3 N3        -11.7934   -1.6556   51.2102 N.2     1  ZINC000081577146   -0.4800
      4 S4        -10.2961   -1.3247   51.9430 S.3     1  ZINC000081577146    0.1900
      5 C5        -10.7611    0.2355   52.5072 C.2     1  ZINC000081577146    0.2700
      6 N6         -9.9948    1.1329   53.2287 N.3     1  ZINC000081577146   -0.4300
      7 C7         -8.5746    1.0223   52.8675 C.3     1  ZINC000081577146    0.0700
      8 C8         -7.7738    2.0827   53.6268 C.3     1  ZINC000081577146    0.0500
      9 N9         -7.9629    1.8941   55.0718 N.3     1  ZINC000081577146   -0.5200
     10 C10        -7.1491    2.8472   55.8381 C.3     1  ZINC000081577146    0.1900
     11 H11        -7.4036    3.8643   55.5400 H       1  ZINC000081577146    0.0700
     12 C12        -5.6665    2.5903   55.5607 C.3     1  ZINC000081577146   -0.1500
     13 C13        -7.4225    2.6719   57.3097 C.2     1  ZINC000081577146    0.1900
     14 N14        -7.3936    3.6209   58.2030 N.2     1  ZINC000081577146   -0.4500
     15 C15        -7.6867    3.0973   59.4028 C.2     1  ZINC000081577146   -0.0200
     16 C16        -7.9032    1.7686   59.2270 C.2     1  ZINC000081577146    0.0000
     17 C17        -8.2559    0.7872   60.2747 C.ar    1  ZINC000081577146   -0.0200
     18 C18        -8.6337   -0.5093   59.9220 C.ar    1  ZINC000081577146   -0.1000
     19 C19        -8.9612   -1.4205   60.9048 C.ar    1  ZINC000081577146   -0.1200
     20 C20        -8.9161   -1.0514   62.2374 C.ar    1  ZINC000081577146   -0.1100
     21 C21        -8.5429    0.2323   62.5937 C.ar    1  ZINC000081577146   -0.1100
     22 C22        -8.2070    1.1514   61.6212 C.ar    1  ZINC000081577146   -0.0900
     23 O23        -7.7399    1.5165   57.9096 O.3     1  ZINC000081577146   -0.2000
     24 C24        -9.3832    2.0047   55.4331 C.3     1  ZINC000081577146    0.0600
     25 C25       -10.1840    0.9443   54.6737 C.3     1  ZINC000081577146    0.0500
     26 N26       -12.0025    0.3898   52.0973 N.2     1  ZINC000081577146   -0.5400
     27 H27       -13.9528   -0.1044   49.9147 H       1  ZINC000081577146    0.0900
     28 H28       -14.3740   -1.5375   50.8827 H       1  ZINC000081577146    0.0900
     29 H29       -14.5432    0.0904   51.5826 H       1  ZINC000081577146    0.0900
     30 H30        -8.2081    0.0306   53.1328 H       1  ZINC000081577146    0.0700
     31 H31        -8.4591    1.1781   51.7949 H       1  ZINC000081577146    0.1100
     32 H32        -6.7162    1.9838   53.3825 H       1  ZINC000081577146    0.1000
     33 H33        -8.1221    3.0753   53.3409 H       1  ZINC000081577146    0.0600
     34 H34        -5.4120    1.5733   55.8589 H       1  ZINC000081577146    0.0800
     35 H35        -5.4687    2.7172   54.4963 H       1  ZINC000081577146    0.0800
     36 H36        -5.0626    3.2975   56.1293 H       1  ZINC000081577146    0.0700
     37 H37        -7.7407    3.6348   60.3380 H       1  ZINC000081577146    0.1900
     38 H38        -8.6699   -0.7985   58.8821 H       1  ZINC000081577146    0.1300
     39 H39        -9.2537   -2.4241   60.6332 H       1  ZINC000081577146    0.1300
     40 H40        -9.1738   -1.7684   63.0028 H       1  ZINC000081577146    0.1300
     41 H41        -8.5104    0.5143   63.6358 H       1  ZINC000081577146    0.1300
     42 H42        -7.9154    2.1530   61.9007 H       1  ZINC000081577146    0.1300
     43 H43        -9.4987    1.8489   56.5057 H       1  ZINC000081577146    0.0900
     44 H44        -9.7497    2.9964   55.1677 H       1  ZINC000081577146    0.0500
     45 H45       -11.2416    1.0432   54.9182 H       1  ZINC000081577146    0.1000
     46 H46        -9.8357   -0.0482   54.9596 H       1  ZINC000081577146    0.0800
@<TRIPOS>BOND
     1     1     2    1
     2     1    27    1
     3     1    28    1
     4     1    29    1
     5     2    26    1
     6     2     3    2
     7     3     4    1
     8     4     5    1
     9     5     6    1
    10     5    26    2
    11     6    25    1
    12     6     7    1
    13     7     8    1
    14     7    30    1
    15     7    31    1
    16     8     9    1
    17     8    32    1
    18     8    33    1
    19     9    10    1
    20     9    24    1
    21    10    11    1
    22    10    12    1
    23    10    13    1
    24    12    34    1
    25    12    35    1
    26    12    36    1
    27    13    23    1
    28    13    14    2
    29    14    15    1
    30    15    16    2
    31    15    37    1
    32    16    17    1
    33    16    23    1
    34    17    22   ar
    35    17    18   ar
    36    18    19   ar
    37    18    38    1
    38    19    20   ar
    39    19    39    1
    40    20    21   ar
    41    20    40    1
    42    21    22   ar
    43    21    41    1
    44    22    42    1
    45    24    25    1
    46    24    43    1
    47    24    44    1
    48    25    45    1
    49    25    46    1
@<TRIPOS>SUBSTRUCTURE
     1 ZINC000081577146        1 TEMP              0 ****  ****    0 ROOT


##########                                Name:    ZINC000410354665
##########                DOCK_Rotatable_Bonds:                   7
##########                         Heavy_Atoms:                  29
##########                    Molecular_Weight:             417.889
##########                DOCK_Rotatable_Bonds:                   7
##########                       Formal_Charge:        -3.72529e-08
##########                     HBond_Acceptors:                   7
##########                        HBond_Donors:                   1
##########                         Heavy_Atoms:                  29
##########                          Grid_Score:          -30.857454
##########                     Grid_vdw_energy:          -30.895452
##########                      Grid_es_energy:            0.037997
##########           Internal_energy_repulsive:            9.677549

@<TRIPOS>MOLECULE
ZINC000410354665
 53 56 1 0 0
SMALL
USER_CHARGES


@<TRIPOS>ATOM
      1 C1         -4.1870    3.6913   56.8091 C.3     1  ZINC000410354665    0.0200
      2 O2         -3.0189    4.5131   56.8549 O.3     1  ZINC000410354665   -0.3000
      3 C3         -2.0626    4.2797   55.9164 C.ar    1  ZINC000410354665    0.0900
      4 C4         -2.4149    4.1614   54.5863 C.ar    1  ZINC000410354665   -0.1100
      5 C5         -1.4294    3.9221   53.6243 C.ar    1  ZINC000410354665   -0.1400
      6 C6         -1.8004    3.7953   52.2013 C.2     1  ZINC000410354665    0.5700
      7 O7         -2.8273    3.2239   51.8893 O.2     1  ZINC000410354665   -0.5300
      8 N8         -1.0008    4.3130   51.2478 N.am    1  ZINC000410354665   -0.7200
      9 C9         -1.3699    4.1886   49.8355 C.3     1  ZINC000410354665    0.1700
     10 C10        -0.9725    2.8255   49.3306 C.ar    1  ZINC000410354665   -0.1000
     11 C11         0.3262    2.5944   48.9177 C.ar    1  ZINC000410354665   -0.0900
     12 C12         0.6940    1.3451   48.4515 C.ar    1  ZINC000410354665   -0.0300
     13 Cl13        2.3260    1.0585   47.9334 Cl      1  ZINC000410354665   -0.0400
     14 C14        -0.2403    0.3206   48.3983 C.ar    1  ZINC000410354665    0.0700
     15 O15         0.1340   -0.9017   47.9300 O.3     1  ZINC000410354665   -0.2900
     16 C16        -0.7292   -2.0012   48.2391 C.3     1  ZINC000410354665    0.0200
     17 C17        -2.1750   -1.5719   47.9555 C.3     1  ZINC000410354665    0.0200
     18 O18        -2.4759   -0.4393   48.7781 O.3     1  ZINC000410354665   -0.3000
     19 C19        -1.5448    0.5527   48.8171 C.ar    1  ZINC000410354665    0.0600
     20 C20        -1.9059    1.8069   49.2865 C.ar    1  ZINC000410354665   -0.0900
     21 C21        -0.0930    3.8036   54.0125 C.ar    1  ZINC000410354665   -0.0800
     22 C22         0.2517    3.9222   55.3417 C.ar    1  ZINC000410354665   -0.1900
     23 C23        -0.7258    4.1657   56.2964 C.ar    1  ZINC000410354665    0.1400
     24 O24        -0.3811    4.2818   57.6047 O.3     1  ZINC000410354665   -0.2900
     25 C25        -0.6767    3.1716   58.4544 C.3     1  ZINC000410354665    0.0700
     26 C26        -0.0742    1.8684   57.8731 C.3     1  ZINC000410354665   -0.1500
     27 C27         0.0578    0.9650   59.1244 C.3     1  ZINC000410354665   -0.1200
     28 C28         0.4895    1.9325   60.2457 C.3     1  ZINC000410354665   -0.1200
     29 C29         0.0225    3.3355   59.8197 C.3     1  ZINC000410354665   -0.1200
     30 H30        -4.6835    3.8189   55.8472 H       1  ZINC000410354665    0.0600
     31 H31        -3.9018    2.6469   56.9351 H       1  ZINC000410354665    0.0600
     32 H32        -4.8669    3.9815   57.6101 H       1  ZINC000410354665    0.1000
     33 H33        -3.4493    4.2533   54.2902 H       1  ZINC000410354665    0.1500
     34 H34        -0.1810    4.7678   51.4966 H       1  ZINC000410354665    0.4000
     35 H35        -2.4472    4.3156   49.7289 H       1  ZINC000410354665    0.0800
     36 H36        -0.8547    4.9550   49.2564 H       1  ZINC000410354665    0.0900
     37 H37         1.0547    3.3906   48.9588 H       1  ZINC000410354665    0.1500
     38 H38        -0.4711   -2.8576   47.6161 H       1  ZINC000410354665    0.1300
     39 H39        -0.6242   -2.2664   49.2911 H       1  ZINC000410354665    0.0800
     40 H40        -2.2787   -1.3010   46.9048 H       1  ZINC000410354665    0.0800
     41 H41        -2.8548   -2.3900   48.1936 H       1  ZINC000410354665    0.1300
     42 H42        -2.9187    1.9890   49.6145 H       1  ZINC000410354665    0.1400
     43 H43         0.6701    3.6187   53.2710 H       1  ZINC000410354665    0.1300
     44 H44         1.2855    3.8301   55.6404 H       1  ZINC000410354665    0.1400
     45 H45        -1.7538    3.0702   58.5872 H       1  ZINC000410354665    0.0800
     46 H46        -0.7503    1.4221   57.1439 H       1  ZINC000410354665    0.0700
     47 H47         0.9029    2.0590   57.4294 H       1  ZINC000410354665    0.0800
     48 H48        -0.9004    0.5048   59.3654 H       1  ZINC000410354665    0.0700
     49 H49         0.8193    0.2016   58.9650 H       1  ZINC000410354665    0.0700
     50 H50         0.0150    1.6503   61.1856 H       1  ZINC000410354665    0.0700
     51 H51         1.5739    1.9172   60.3551 H       1  ZINC000410354665    0.0700
     52 H52         0.8803    4.0010   59.7225 H       1  ZINC000410354665    0.0800
     53 H53        -0.6786    3.7342   60.5529 H       1  ZINC000410354665    0.0700
@<TRIPOS>BOND
     1     1     2    1
     2     1    30    1
     3     1    31    1
     4     1    32    1
     5     2     3    1
     6     3    23   ar
     7     3     4   ar
     8     4     5   ar
     9     4    33    1
    10     5     6    1
    11     5    21   ar
    12     6     7    2
    13     6     8   am
    14     8     9    1
    15     8    34    1
    16     9    10    1
    17     9    35    1
    18     9    36    1
    19    10    20   ar
    20    10    11   ar
    21    11    12   ar
    22    11    37    1
    23    12    13    1
    24    12    14   ar
    25    14    19   ar
    26    14    15    1
    27    15    16    1
    28    16    17    1
    29    16    38    1
    30    16    39    1
    31    17    18    1
    32    17    40    1
    33    17    41    1
    34    18    19    1
    35    19    20   ar
    36    20    42    1
    37    21    22   ar
    38    21    43    1
    39    22    23   ar
    40    22    44    1
    41    23    24    1
    42    24    25    1
    43    25    29    1
    44    25    26    1
    45    25    45    1
    46    26    27    1
    47    26    46    1
    48    26    47    1
    49    27    28    1
    50    27    48    1
    51    27    49    1
    52    28    29    1
    53    28    50    1
    54    28    51    1
    55    29    52    1
    56    29    53    1
@<TRIPOS>SUBSTRUCTURE
     1 ZINC000410354665        1 TEMP              0 ****  ****    0 ROOT


##########                                Name:    ZINC001500042809
##########                DOCK_Rotatable_Bonds:                   9
##########                         Heavy_Atoms:                  24
##########                    Molecular_Weight:              346.45
##########                DOCK_Rotatable_Bonds:                   9
##########                       Formal_Charge:           0.0200001
##########                     HBond_Acceptors:                   6
##########                        HBond_Donors:                   2
##########                         Heavy_Atoms:                  24
##########                          Grid_Score:          -30.826944
##########                     Grid_vdw_energy:          -29.783590
##########                      Grid_es_energy:           -1.043354
##########           Internal_energy_repulsive:           36.532288

@<TRIPOS>MOLECULE
ZINC001500042809
 46 47 1 0 0
SMALL
USER_CHARGES


@<TRIPOS>ATOM
      1 C1         -2.1873    0.3289   44.4864 C.3     1  ZINC001500042809    0.0200
      2 O2         -1.4548   -0.0531   45.6523 O.3     1  ZINC001500042809   -0.3100
      3 C3         -1.6105    0.7182   46.7580 C.ar    1  ZINC001500042809    0.1600
      4 C4         -2.5299    0.3525   47.7343 C.ar    1  ZINC001500042809   -0.1600
      5 C5         -2.6912    1.1328   48.8575 C.ar    1  ZINC001500042809   -0.0200
      6 C6         -1.9288    2.2931   49.0152 C.ar    1  ZINC001500042809   -0.1800
      7 C7         -2.0986    3.1322   50.2176 C.2     1  ZINC001500042809    0.5600
      8 O8         -2.0899    2.6221   51.3212 O.2     1  ZINC001500042809   -0.5300
      9 N9         -2.2632    4.4641   50.0921 N.am    1  ZINC001500042809   -0.7300
     10 C10        -2.4299    5.2972   51.2856 C.3     1  ZINC001500042809    0.1300
     11 C11        -3.7905    5.9950   51.2343 C.3     1  ZINC001500042809   -0.1200
     12 H12        -3.8791    6.6808   52.0769 H       1  ZINC001500042809    0.0900
     13 C13        -3.9136    6.7771   49.9251 C.3     1  ZINC001500042809   -0.1500
     14 C14        -4.9037    4.9480   51.3096 C.3     1  ZINC001500042809    0.1300
     15 N15        -4.9204    4.3483   52.6461 N.am    1  ZINC001500042809   -0.7300
     16 C16        -6.0869    3.9517   53.1922 C.2     1  ZINC001500042809    0.5900
     17 O17        -7.1263    4.0905   52.5746 O.2     1  ZINC001500042809   -0.5200
     18 C18        -6.1038    3.3532   54.5302 C.2     1  ZINC001500042809   -0.2800
     19 C19        -5.0088    3.1515   55.3223 C.2     1  ZINC001500042809   -0.0100
     20 C20        -3.6086    3.5285   54.9119 C.3     1  ZINC001500042809   -0.1100
     21 C21        -5.3116    2.5711   56.5312 C.2     1  ZINC001500042809   -0.1500
     22 C22        -6.6089    2.3058   56.7243 C.2     1  ZINC001500042809   -0.2200
     23 S23        -7.5373    2.7866   55.3761 S.3     1  ZINC001500042809    0.1900
     24 C24        -1.0095    2.6600   48.0290 C.ar    1  ZINC001500042809   -0.0400
     25 C25        -0.8506    1.8719   46.9110 C.ar    1  ZINC001500042809   -0.2200
     26 H26        -3.2547    0.3130   44.7066 H       1  ZINC001500042809    0.0600
     27 H27        -1.8933    1.3345   44.1859 H       1  ZINC001500042809    0.0600
     28 H28        -1.9728   -0.3695   43.6775 H       1  ZINC001500042809    0.1000
     29 H29        -3.1188   -0.5444   47.6117 H       1  ZINC001500042809    0.1400
     30 H30        -3.4062    0.8483   49.6153 H       1  ZINC001500042809    0.1400
     31 H31        -2.2712    4.8709   49.2116 H       1  ZINC001500042809    0.4000
     32 H32        -1.6385    6.0461   51.3194 H       1  ZINC001500042809    0.0800
     33 H33        -2.3760    4.6711   52.1762 H       1  ZINC001500042809    0.0800
     34 H34        -3.1205    7.5229   49.8715 H       1  ZINC001500042809    0.0600
     35 H35        -3.8249    6.0912   49.0825 H       1  ZINC001500042809    0.0600
     36 H36        -4.8829    7.2742   49.8885 H       1  ZINC001500042809    0.0600
     37 H37        -5.8642    5.4243   51.1130 H       1  ZINC001500042809    0.0800
     38 H38        -4.7238    4.1722   50.5654 H       1  ZINC001500042809    0.0800
     39 H39        -4.0918    4.2365   53.1380 H       1  ZINC001500042809    0.4000
     40 H40        -3.4000    4.5505   55.2282 H       1  ZINC001500042809    0.0800
     41 H41        -2.8970    2.8501   55.3825 H       1  ZINC001500042809    0.0700
     42 H42        -3.5162    3.4575   53.8282 H       1  ZINC001500042809    0.0900
     43 H43        -4.5576    2.3454   57.2706 H       1  ZINC001500042809    0.1500
     44 H44        -7.0145    1.8516   57.6163 H       1  ZINC001500042809    0.1700
     45 H45        -0.4216    3.5585   48.1452 H       1  ZINC001500042809    0.1300
     46 H46        -0.1379    2.1530   46.1499 H       1  ZINC001500042809    0.1400
@<TRIPOS>BOND
     1     1     2    1
     2     1    26    1
     3     1    27    1
     4     1    28    1
     5     2     3    1
     6     3    25   ar
     7     3     4   ar
     8     4     5   ar
     9     4    29    1
    10     5     6   ar
    11     5    30    1
    12     6     7    1
    13     6    24   ar
    14     7     8    2
    15     7     9   am
    16     9    10    1
    17     9    31    1
    18    10    11    1
    19    10    32    1
    20    10    33    1
    21    11    12    1
    22    11    13    1
    23    11    14    1
    24    13    34    1
    25    13    35    1
    26    13    36    1
    27    14    15    1
    28    14    37    1
    29    14    38    1
    30    15    16   am
    31    15    39    1
    32    16    17    2
    33    16    18    1
    34    18    23    1
    35    18    19    2
    36    19    20    1
    37    19    21    1
    38    20    40    1
    39    20    41    1
    40    20    42    1
    41    21    22    2
    42    21    43    1
    43    22    23    1
    44    22    44    1
    45    24    25   ar
    46    24    45    1
    47    25    46    1
@<TRIPOS>SUBSTRUCTURE
     1 ZINC001500042809        1 TEMP              0 ****  ****    0 ROOT


##########                                Name:    ZINC000470948647
##########                DOCK_Rotatable_Bonds:                   6
##########                         Heavy_Atoms:                  29
##########                    Molecular_Weight:             412.556
##########                DOCK_Rotatable_Bonds:                   6
##########                       Formal_Charge:           0.0100001
##########                     HBond_Acceptors:                   7
##########                        HBond_Donors:                   1
##########                         Heavy_Atoms:                  29
##########                          Grid_Score:          -30.803736
##########                     Grid_vdw_energy:          -30.566904
##########                      Grid_es_energy:           -0.236833
##########           Internal_energy_repulsive:           13.248229

@<TRIPOS>MOLECULE
ZINC000470948647
 57 60 1 0 0
SMALL
USER_CHARGES


@<TRIPOS>ATOM
      1 C1        -10.3444    0.3811   53.4627 C.3     1  ZINC000470948647   -0.1100
      2 C2         -9.0260    1.0997   53.5909 C.ar    1  ZINC000470948647   -0.1000
      3 C3         -8.2674    1.3557   52.4637 C.ar    1  ZINC000470948647   -0.1100
      4 C4         -7.0584    2.0142   52.5779 C.ar    1  ZINC000470948647   -0.1100
      5 C5         -6.6055    2.4194   53.8262 C.ar    1  ZINC000470948647    0.1400
      6 N6         -5.3815    3.0869   53.9453 N.am    1  ZINC000470948647   -0.6700
      7 C7         -5.3419    4.4335   53.9060 C.2     1  ZINC000470948647    0.5100
      8 O8         -6.3671    5.0667   53.7676 O.2     1  ZINC000470948647   -0.4800
      9 C9         -4.0237    5.1526   54.0343 C.3     1  ZINC000470948647    0.1200
     10 H10        -4.1574    6.1868   53.7173 H       1  ZINC000470948647    0.1200
     11 C11        -3.5928    5.1395   55.5186 C.3     1  ZINC000470948647   -0.0700
     12 S12        -2.4197    3.7196   55.5423 S.3     1  ZINC000470948647   -0.2500
     13 C13        -1.8432    4.0041   53.8174 C.3     1  ZINC000470948647    0.1600
     14 N14        -3.0556    4.5152   53.1547 N.am    1  ZINC000470948647   -0.6000
     15 C15        -3.2547    4.4037   51.8264 C.2     1  ZINC000470948647    0.6300
     16 O16        -4.2717    4.8425   51.3252 O.2     1  ZINC000470948647   -0.5100
     17 C17        -2.2373    3.7486   50.9795 C.2     1  ZINC000470948647   -0.0100
     18 N18        -2.4376    2.7486   50.1443 N.2     1  ZINC000470948647   -0.2700
     19 N19        -1.3346    2.4260   49.5702 N.pl3   1  ZINC000470948647   -0.2700
     20 C20        -1.1868    1.3552   48.5813 C.3     1  ZINC000470948647    0.1500
     21 C21        -2.5203    0.6230   48.4190 C.3     1  ZINC000470948647   -0.1300
     22 C22        -2.3659   -0.4952   47.3862 C.3     1  ZINC000470948647   -0.1200
     23 C23        -1.9471    0.1055   46.0429 C.3     1  ZINC000470948647   -0.1300
     24 C24        -0.6135    0.8378   46.2051 C.3     1  ZINC000470948647   -0.1200
     25 C25        -0.7680    1.9560   47.2379 C.3     1  ZINC000470948647   -0.1300
     26 C26        -0.3312    3.2159   50.0090 C.2     1  ZINC000470948647   -0.0100
     27 C27        -0.8634    4.0792   50.9056 C.2     1  ZINC000470948647   -0.1700
     28 C28        -7.3701    2.1610   54.9567 C.ar    1  ZINC000470948647   -0.1100
     29 C29        -6.8825    2.5995   56.3135 C.3     1  ZINC000470948647   -0.1100
     30 C30        -8.5801    1.5067   54.8352 C.ar    1  ZINC000470948647   -0.1000
     31 H31       -11.1413    1.1088   53.3088 H       1  ZINC000470948647    0.0700
     32 H32       -10.3056   -0.3004   52.6129 H       1  ZINC000470948647    0.0700
     33 H33       -10.5400   -0.1847   54.3736 H       1  ZINC000470948647    0.0700
     34 H34        -8.6202    1.0404   51.4929 H       1  ZINC000470948647    0.1200
     35 H35        -6.4660    2.2132   51.6970 H       1  ZINC000470948647    0.1400
     36 H36        -4.5616    2.5806   54.0561 H       1  ZINC000470948647    0.4100
     37 H37        -3.0894    6.0680   55.7883 H       1  ZINC000470948647    0.1200
     38 H38        -4.4452    4.9542   56.1721 H       1  ZINC000470948647    0.1200
     39 H39        -1.0457    4.7467   53.7939 H       1  ZINC000470948647    0.1000
     40 H40        -1.5170    3.0701   53.3597 H       1  ZINC000470948647    0.1400
     41 H41        -0.4249    0.6522   48.9181 H       1  ZINC000470948647    0.1100
     42 H42        -2.8187    0.1951   49.3761 H       1  ZINC000470948647    0.0800
     43 H43        -3.2822    1.3261   48.0821 H       1  ZINC000470948647    0.0800
     44 H44        -1.6041   -1.1982   47.7231 H       1  ZINC000470948647    0.0700
     45 H45        -3.3160   -1.0168   47.2706 H       1  ZINC000470948647    0.0800
     46 H46        -1.8371   -0.6910   45.3071 H       1  ZINC000470948647    0.0700
     47 H47        -2.7090    0.8087   45.7060 H       1  ZINC000470948647    0.0700
     48 H48         0.1482    0.1348   46.5420 H       1  ZINC000470948647    0.0700
     49 H49        -0.3153    1.2657   45.2480 H       1  ZINC000470948647    0.0700
     50 H50        -1.5299    2.6590   46.9010 H       1  ZINC000470948647    0.0700
     51 H51         0.1820    2.4776   47.3535 H       1  ZINC000470948647    0.0700
     52 H52         0.7023    3.1705   49.6988 H       1  ZINC000470948647    0.1800
     53 H53        -0.3467    4.8525   51.4545 H       1  ZINC000470948647    0.1600
     54 H54        -7.2448    3.6061   56.5219 H       1  ZINC000470948647    0.0700
     55 H55        -7.2575    1.9139   57.0733 H       1  ZINC000470948647    0.0700
     56 H56        -5.7926    2.5957   56.3266 H       1  ZINC000470948647    0.0600
     57 H57        -9.1752    1.3058   55.7137 H       1  ZINC000470948647    0.1300
@<TRIPOS>BOND
     1     1     2    1
     2     1    31    1
     3     1    32    1
     4     1    33    1
     5     2    30   ar
     6     2     3   ar
     7     3     4   ar
     8     3    34    1
     9     4     5   ar
    10     4    35    1
    11     5     6    1
    12     5    28   ar
    13     6     7   am
    14     6    36    1
    15     7     8    2
    16     7     9    1
    17     9    10    1
    18     9    14    1
    19     9    11    1
    20    11    12    1
    21    11    37    1
    22    11    38    1
    23    12    13    1
    24    13    14    1
    25    13    39    1
    26    13    40    1
    27    14    15   am
    28    15    16    2
    29    15    17    1
    30    17    27    1
    31    17    18    2
    32    18    19    1
    33    19    20    1
    34    19    26    1
    35    20    25    1
    36    20    21    1
    37    20    41    1
    38    21    22    1
    39    21    42    1
    40    21    43    1
    41    22    23    1
    42    22    44    1
    43    22    45    1
    44    23    24    1
    45    23    46    1
    46    23    47    1
    47    24    25    1
    48    24    48    1
    49    24    49    1
    50    25    50    1
    51    25    51    1
    52    26    27    2
    53    26    52    1
    54    27    53    1
    55    28    29    1
    56    28    30   ar
    57    29    54    1
    58    29    55    1
    59    29    56    1
    60    30    57    1
@<TRIPOS>SUBSTRUCTURE
     1 ZINC000470948647        1 TEMP              0 ****  ****    0 ROOT


##########                                Name:    ZINC001386869844
##########                DOCK_Rotatable_Bonds:                   9
##########                         Heavy_Atoms:                  25
##########                    Molecular_Weight:             345.485
##########                DOCK_Rotatable_Bonds:                   9
##########                       Formal_Charge:          -0.0300003
##########                     HBond_Acceptors:                   5
##########                        HBond_Donors:                   2
##########                         Heavy_Atoms:                  25
##########                          Grid_Score:          -30.776579
##########                     Grid_vdw_energy:          -28.421688
##########                      Grid_es_energy:           -2.354890
##########           Internal_energy_repulsive:           32.041965

@<TRIPOS>MOLECULE
ZINC001386869844
 56 58 1 0 0
SMALL
USER_CHARGES


@<TRIPOS>ATOM
      1 C1         -3.1638    5.2124   50.1988 C.3     1  ZINC001386869844    0.0600
      2 N2         -2.6381    4.5554   51.3981 N.am    1  ZINC001386869844   -0.6200
      3 C3         -2.7947    5.1901   52.7091 C.3     1  ZINC001386869844    0.1100
      4 C4         -4.2711    5.1742   53.1103 C.3     1  ZINC001386869844    0.1000
      5 N5         -4.4514    4.3032   54.2743 N.am    1  ZINC001386869844   -0.7300
      6 C6         -4.9785    4.7986   55.4116 C.2     1  ZINC001386869844    0.5200
      7 O7         -5.2987    5.9667   55.4729 O.2     1  ZINC001386869844   -0.5300
      8 C8         -5.1640    3.9026   56.6090 C.3     1  ZINC001386869844   -0.1300
      9 C9         -6.5649    3.2885   56.5742 C.3     1  ZINC001386869844   -0.0100
     10 C10        -7.5293    4.2571   55.8868 C.3     1  ZINC001386869844   -0.1500
     11 C11        -6.5251    1.9711   55.7973 C.3     1  ZINC001386869844   -0.1600
     12 C12        -7.0411    3.0234   58.0039 C.3     1  ZINC001386869844   -0.1500
     13 C13        -7.2572    1.5663   58.4177 C.3     1  ZINC001386869844   -0.1900
     14 C14        -8.4609    2.4833   58.1868 C.3     1  ZINC001386869844   -0.1800
     15 C15        -2.0103    3.3672   51.2953 C.2     1  ZINC001386869844    0.5900
     16 O16        -1.5736    2.8216   52.2914 O.2     1  ZINC001386869844   -0.5200
     17 C17        -1.8535    2.7319   49.9825 C.2     1  ZINC001386869844   -0.0600
     18 C18        -0.9181    3.0633   49.0228 C.2     1  ZINC001386869844   -0.0900
     19 C19        -1.1266    2.2121   47.9407 C.2     1  ZINC001386869844   -0.1700
     20 C20        -2.1653    1.3897   48.2461 C.2     1  ZINC001386869844    0.0500
     21 C21        -2.6961    0.3242   47.3167 C.3     1  ZINC001386869844   -0.0600
     22 C22        -2.1792    0.6139   45.9026 C.3     1  ZINC001386869844   -0.1100
     23 C23        -0.6648    0.8349   45.9467 C.3     1  ZINC001386869844   -0.1200
     24 C24        -0.3631    2.1688   46.6405 C.3     1  ZINC001386869844   -0.0500
     25 N25        -2.6090    1.6920   49.4861 N.pl3   1  ZINC001386869844   -0.5400
     26 H26        -2.3654    5.7721   49.7116 H       1  ZINC001386869844    0.0600
     27 H27        -3.5510    4.4594   49.5123 H       1  ZINC001386869844    0.0800
     28 H28        -3.9661    5.8944   50.4802 H       1  ZINC001386869844    0.0900
     29 H29        -2.4431    6.2206   52.6582 H       1  ZINC001386869844    0.1000
     30 H30        -2.2110    4.6432   53.4496 H       1  ZINC001386869844    0.0900
     31 H31        -4.8692    4.7992   52.2798 H       1  ZINC001386869844    0.0700
     32 H32        -4.5905    6.1858   53.3605 H       1  ZINC001386869844    0.0700
     33 H33        -4.1915    3.3698   54.2267 H       1  ZINC001386869844    0.4000
     34 H34        -4.4183    3.1079   56.5871 H       1  ZINC001386869844    0.0900
     35 H35        -5.0459    4.4866   57.5217 H       1  ZINC001386869844    0.0900
     36 H36        -7.1901    4.4460   54.8683 H       1  ZINC001386869844    0.0800
     37 H37        -8.5274    3.8196   55.8621 H       1  ZINC001386869844    0.0500
     38 H38        -7.5577    5.1957   56.4403 H       1  ZINC001386869844    0.0500
     39 H39        -5.8380    1.2811   56.2870 H       1  ZINC001386869844    0.0500
     40 H40        -7.5232    1.5335   55.7726 H       1  ZINC001386869844    0.0500
     41 H41        -6.1858    2.1600   54.7789 H       1  ZINC001386869844    0.0800
     42 H42        -6.6627    3.7106   58.7605 H       1  ZINC001386869844    0.1000
     43 H43        -7.0601    0.7967   57.6714 H       1  ZINC001386869844    0.1000
     44 H44        -7.0212    1.2951   59.4467 H       1  ZINC001386869844    0.0900
     45 H45        -9.0164    2.8150   59.0641 H       1  ZINC001386869844    0.0900
     46 H46        -9.0557    2.3170   57.2887 H       1  ZINC001386869844    0.0900
     47 H47        -0.1675    3.8364   49.0970 H       1  ZINC001386869844    0.1500
     48 H48        -2.3449   -0.6550   47.6423 H       1  ZINC001386869844    0.0800
     49 H49        -3.7859    0.3438   47.3203 H       1  ZINC001386869844    0.0800
     50 H50        -2.4040   -0.2321   45.2533 H       1  ZINC001386869844    0.0700
     51 H51        -2.6656    1.5088   45.5144 H       1  ZINC001386869844    0.0700
     52 H52        -0.1950    0.0225   46.5011 H       1  ZINC001386869844    0.0600
     53 H53        -0.2711    0.8566   44.9305 H       1  ZINC001386869844    0.0700
     54 H54        -0.6781    2.9942   46.0021 H       1  ZINC001386869844    0.0700
     55 H55         0.7058    2.2455   46.8398 H       1  ZINC001386869844    0.0700
     56 H56        -3.3391    1.2517   49.9487 H       1  ZINC001386869844    0.4200
@<TRIPOS>BOND
     1     1     2    1
     2     1    26    1
     3     1    27    1
     4     1    28    1
     5     2     3    1
     6     2    15   am
     7     3     4    1
     8     3    29    1
     9     3    30    1
    10     4     5    1
    11     4    31    1
    12     4    32    1
    13     5     6   am
    14     5    33    1
    15     6     7    2
    16     6     8    1
    17     8     9    1
    18     8    34    1
    19     8    35    1
    20     9    10    1
    21     9    11    1
    22     9    12    1
    23    10    36    1
    24    10    37    1
    25    10    38    1
    26    11    39    1
    27    11    40    1
    28    11    41    1
    29    12    14    1
    30    12    13    1
    31    12    42    1
    32    13    14    1
    33    13    43    1
    34    13    44    1
    35    14    45    1
    36    14    46    1
    37    15    16    2
    38    15    17    1
    39    17    25    1
    40    17    18    2
    41    18    19    1
    42    18    47    1
    43    19    24    1
    44    19    20    2
    45    20    21    1
    46    20    25    1
    47    21    22    1
    48    21    48    1
    49    21    49    1
    50    22    23    1
    51    22    50    1
    52    22    51    1
    53    23    24    1
    54    23    52    1
    55    23    53    1
    56    24    54    1
    57    24    55    1
    58    25    56    1
@<TRIPOS>SUBSTRUCTURE
     1 ZINC001386869844        1 TEMP              0 ****  ****    0 ROOT


##########                                Name:    ZINC000190927708
##########                DOCK_Rotatable_Bonds:                  10
##########                         Heavy_Atoms:                  26
##########                    Molecular_Weight:             358.437
##########                DOCK_Rotatable_Bonds:                  10
##########                       Formal_Charge:           0.0499998
##########                     HBond_Acceptors:                   6
##########                        HBond_Donors:                   1
##########                         Heavy_Atoms:                  26
##########                          Grid_Score:          -30.772930
##########                     Grid_vdw_energy:          -27.810505
##########                      Grid_es_energy:           -2.962425
##########           Internal_energy_repulsive:           22.953165

@<TRIPOS>MOLECULE
ZINC000190927708
 52 53 1 0 0
SMALL
USER_CHARGES


@<TRIPOS>ATOM
      1 C1         -0.0978    3.2839   57.0294 C.3     1  ZINC000190927708   -0.1500
      2 C2         -0.8642    3.7960   55.8081 C.3     1  ZINC000190927708   -0.1500
      3 C3         -2.1179    2.9445   55.5988 C.3     1  ZINC000190927708    0.1000
      4 N4         -2.9133    3.5072   54.5048 N.am    1  ZINC000190927708   -0.5900
      5 C5         -2.4935    3.3777   53.2306 C.2     1  ZINC000190927708    0.5300
      6 O6         -1.4566    2.7967   52.9899 O.2     1  ZINC000190927708   -0.5300
      7 C7         -3.3126    3.9550   52.1051 C.3     1  ZINC000190927708   -0.0800
      8 C8         -2.7292    3.5207   50.7852 C.2     1  ZINC000190927708   -0.1700
      9 C9         -3.1279    2.3534   50.2219 C.2     1  ZINC000190927708    0.0000
     10 C10        -2.5423    1.9603   48.9389 C.ar    1  ZINC000190927708   -0.1300
     11 C11        -2.9144    0.7686   48.3087 C.ar    1  ZINC000190927708   -0.0500
     12 C12        -2.3499    0.4309   47.1111 C.ar    1  ZINC000190927708   -0.1500
     13 C13        -1.4104    1.2599   46.5143 C.ar    1  ZINC000190927708   -0.0600
     14 C14        -1.0283    2.4390   47.1175 C.ar    1  ZINC000190927708   -0.1600
     15 C15        -1.5896    2.8039   48.3365 C.ar    1  ZINC000190927708    0.1900
     16 N16        -1.2264    3.9776   48.9620 N.am    1  ZINC000190927708   -0.6300
     17 C17        -1.7743    4.3332   50.1372 C.2     1  ZINC000190927708    0.5500
     18 O18        -1.4294    5.3780   50.6616 O.2     1  ZINC000190927708   -0.5300
     19 C19        -4.1650    4.2107   54.7957 C.3     1  ZINC000190927708    0.1500
     20 H20        -4.4971    4.7447   53.9053 H       1  ZINC000190927708    0.1400
     21 C21        -3.9370    5.2082   55.9331 C.3     1  ZINC000190927708   -0.1300
     22 C22        -5.1982    6.0509   56.1331 C.3     1  ZINC000190927708   -0.1500
     23 C23        -5.2181    3.2137   55.2054 C.2     1  ZINC000190927708    0.4500
     24 O24        -6.1956    3.0491   54.5144 O.2     1  ZINC000190927708   -0.5000
     25 O25        -5.0703    2.5084   56.3378 O.3     1  ZINC000190927708   -0.3500
     26 C26        -6.2221    1.7551   56.8004 C.3     1  ZINC000190927708    0.0600
     27 C27        -7.2225    2.7065   57.4597 C.3     1  ZINC000190927708   -0.1500
     28 H28         0.1910    2.2453   56.8678 H       1  ZINC000190927708    0.0600
     29 H29         0.7953    3.8905   57.1785 H       1  ZINC000190927708    0.0600
     30 H30        -0.7340    3.3509   57.9119 H       1  ZINC000190927708    0.0600
     31 H31        -1.1531    4.8345   55.9697 H       1  ZINC000190927708    0.0800
     32 H32        -0.2279    3.7290   54.9256 H       1  ZINC000190927708    0.0700
     33 H33        -1.8268    1.9243   55.3490 H       1  ZINC000190927708    0.0900
     34 H34        -2.7106    2.9396   56.5136 H       1  ZINC000190927708    0.0900
     35 H35        -4.3397    3.5986   52.1832 H       1  ZINC000190927708    0.1100
     36 H36        -3.3000    5.0432   52.1675 H       1  ZINC000190927708    0.1200
     37 H37        -3.8608    1.7275   50.7090 H       1  ZINC000190927708    0.1400
     38 H38        -3.6446    0.1180   48.7667 H       1  ZINC000190927708    0.1400
     39 H39        -2.6372   -0.4897   46.6247 H       1  ZINC000190927708    0.1300
     40 H40        -0.9737    0.9781   45.5675 H       1  ZINC000190927708    0.1300
     41 H41        -0.2963    3.0773   46.6451 H       1  ZINC000190927708    0.1300
     42 H42        -0.5691    4.5572   48.5462 H       1  ZINC000190927708    0.4200
     43 H43        -3.7124    4.6664   56.8519 H       1  ZINC000190927708    0.0900
     44 H44        -3.1003    5.8603   55.6823 H       1  ZINC000190927708    0.0800
     45 H45        -5.0357    6.7615   56.9435 H       1  ZINC000190927708    0.0600
     46 H46        -5.4227    6.5926   55.2144 H       1  ZINC000190927708    0.0600
     47 H47        -6.0348    5.3987   56.3840 H       1  ZINC000190927708    0.0600
     48 H48        -6.6962    1.2594   55.9532 H       1  ZINC000190927708    0.0700
     49 H49        -5.8999    1.0073   57.5251 H       1  ZINC000190927708    0.0700
     50 H50        -6.7485    3.2021   58.3069 H       1  ZINC000190927708    0.0700
     51 H51        -7.5447    3.4543   56.7350 H       1  ZINC000190927708    0.0700
     52 H52        -8.0872    2.1409   57.8070 H       1  ZINC000190927708    0.0800
@<TRIPOS>BOND
     1     1     2    1
     2     1    28    1
     3     1    29    1
     4     1    30    1
     5     2     3    1
     6     2    31    1
     7     2    32    1
     8     3     4    1
     9     3    33    1
    10     3    34    1
    11     4     5   am
    12     4    19    1
    13     5     6    2
    14     5     7    1
    15     7     8    1
    16     7    35    1
    17     7    36    1
    18     8    17    1
    19     8     9    2
    20     9    10    1
    21     9    37    1
    22    10    15   ar
    23    10    11   ar
    24    11    12   ar
    25    11    38    1
    26    12    13   ar
    27    12    39    1
    28    13    14   ar
    29    13    40    1
    30    14    15   ar
    31    14    41    1
    32    15    16    1
    33    16    17   am
    34    16    42    1
    35    17    18    2
    36    19    20    1
    37    19    21    1
    38    19    23    1
    39    21    22    1
    40    21    43    1
    41    21    44    1
    42    22    45    1
    43    22    46    1
    44    22    47    1
    45    23    24    2
    46    23    25    1
    47    25    26    1
    48    26    27    1
    49    26    48    1
    50    26    49    1
    51    27    50    1
    52    27    51    1
    53    27    52    1
@<TRIPOS>SUBSTRUCTURE
     1 ZINC000190927708        1 TEMP              0 ****  ****    0 ROOT


##########                                Name:    ZINC000503413572
##########                DOCK_Rotatable_Bonds:                   7
##########                         Heavy_Atoms:                  26
##########                    Molecular_Weight:             355.375
##########                DOCK_Rotatable_Bonds:                   7
##########                       Formal_Charge:        -1.71363e-07
##########                     HBond_Acceptors:                   9
##########                        HBond_Donors:                   1
##########                         Heavy_Atoms:                  26
##########                          Grid_Score:          -30.764074
##########                     Grid_vdw_energy:          -30.452606
##########                      Grid_es_energy:           -0.311468
##########           Internal_energy_repulsive:            7.897558

@<TRIPOS>MOLECULE
ZINC000503413572
 44 47 1 0 0
SMALL
USER_CHARGES


@<TRIPOS>ATOM
      1 C1        -11.9811    2.6377   52.9249 C.3     1  ZINC000503413572   -0.1200
      2 C2        -11.8989    1.2349   52.3805 C.ar    1  ZINC000503413572   -0.0200
      3 C3        -12.9873    0.6781   51.7386 C.ar    1  ZINC000503413572   -0.1400
      4 C4        -12.9120   -0.6111   51.2377 C.ar    1  ZINC000503413572    0.1300
      5 F5        -13.9777   -1.1541   50.6096 F       1  ZINC000503413572   -0.1300
      6 C6        -11.7456   -1.3437   51.3794 C.ar    1  ZINC000503413572   -0.1400
      7 C7        -10.6549   -0.7899   52.0209 C.ar    1  ZINC000503413572   -0.0700
      8 C8        -10.7268    0.5037   52.5190 C.ar    1  ZINC000503413572    0.1000
      9 N9         -9.6198    1.0679   53.1703 N.pl3   1  ZINC000503413572   -0.3100
     10 C10        -9.3391    0.9969   54.4894 C.2     1  ZINC000503413572    0.1100
     11 C11        -8.1729    1.6821   54.6823 C.2     1  ZINC000503413572   -0.1000
     12 C12        -7.4853    1.8675   55.9741 C.2     1  ZINC000503413572    0.6100
     13 O13        -6.3764    2.3652   56.0067 O.2     1  ZINC000503413572   -0.5300
     14 N14        -8.0863    1.4853   57.1183 N.am    1  ZINC000503413572   -0.7200
     15 C15        -7.4042    1.6711   58.4015 C.3     1  ZINC000503413572    0.1100
     16 C16        -8.4375    1.6952   59.5295 C.3     1  ZINC000503413572    0.1000
     17 N17        -8.5203    0.3680   60.1443 N.pl3   1  ZINC000503413572   -0.4700
     18 C18        -8.7465   -0.8097   59.5136 C.2     1  ZINC000503413572    0.1500
     19 N19        -8.7429   -1.7448   60.4243 N.2     1  ZINC000503413572   -0.2900
     20 N20        -8.5289   -1.2229   61.5799 N.2     1  ZINC000503413572   -0.2900
     21 C21        -8.3804    0.0682   61.4582 C.2     1  ZINC000503413572    0.2100
     22 C22        -8.1131    1.0455   62.5738 C.3     1  ZINC000503413572   -0.1000
     23 C23        -8.6771    0.7111   63.9562 C.3     1  ZINC000503413572   -0.1500
     24 C24        -7.1738    0.5978   63.6954 C.3     1  ZINC000503413572   -0.1600
     25 N25        -7.7579    2.1585   53.4960 N.2     1  ZINC000503413572   -0.2000
     26 N26        -8.5885    1.8092   52.5763 N.2     1  ZINC000503413572   -0.0400
     27 H27       -11.5765    3.3361   52.1923 H       1  ZINC000503413572    0.0900
     28 H28       -13.0223    2.8878   53.1289 H       1  ZINC000503413572    0.0800
     29 H29       -11.4041    2.7039   53.8473 H       1  ZINC000503413572    0.0700
     30 H30       -13.8979    1.2479   51.6275 H       1  ZINC000503413572    0.1500
     31 H31       -11.6888   -2.3489   50.9886 H       1  ZINC000503413572    0.1500
     32 H32        -9.7454   -1.3618   52.1317 H       1  ZINC000503413572    0.1500
     33 H33        -9.9241    0.4955   55.2462 H       1  ZINC000503413572    0.2100
     34 H34        -8.9705    1.0872   57.0923 H       1  ZINC000503413572    0.4100
     35 H35        -6.7071    0.8493   58.5648 H       1  ZINC000503413572    0.0800
     36 H36        -6.8576    2.6142   58.3892 H       1  ZINC000503413572    0.0800
     37 H37        -8.1381    2.4257   60.2811 H       1  ZINC000503413572    0.1100
     38 H38        -9.4116    1.9692   59.1243 H       1  ZINC000503413572    0.1100
     39 H39        -8.9018   -0.9489   58.4539 H       1  ZINC000503413572    0.2200
     40 H40        -8.0842    2.0954   62.2822 H       1  ZINC000503413572    0.1200
     41 H41        -9.0194    1.5411   64.5743 H       1  ZINC000503413572    0.1100
     42 H42        -9.2415   -0.2158   64.0588 H       1  ZINC000503413572    0.1100
     43 H43        -6.7490   -0.4038   63.6264 H       1  ZINC000503413572    0.1000
     44 H44        -6.5271    1.3531   64.1418 H       1  ZINC000503413572    0.1100
@<TRIPOS>BOND
     1     1     2    1
     2     1    27    1
     3     1    28    1
     4     1    29    1
     5     2     8   ar
     6     2     3   ar
     7     3     4   ar
     8     3    30    1
     9     4     5    1
    10     4     6   ar
    11     6     7   ar
    12     6    31    1
    13     7     8   ar
    14     7    32    1
    15     8     9    1
    16     9    26    1
    17     9    10    1
    18    10    11    2
    19    10    33    1
    20    11    12    1
    21    11    25    1
    22    12    13    2
    23    12    14   am
    24    14    15    1
    25    14    34    1
    26    15    16    1
    27    15    35    1
    28    15    36    1
    29    16    17    1
    30    16    37    1
    31    16    38    1
    32    17    21    1
    33    17    18    1
    34    18    19    2
    35    18    39    1
    36    19    20    1
    37    20    21    2
    38    21    22    1
    39    22    24    1
    40    22    23    1
    41    22    40    1
    42    23    24    1
    43    23    41    1
    44    23    42    1
    45    24    43    1
    46    24    44    1
    47    25    26    2
@<TRIPOS>SUBSTRUCTURE
     1 ZINC000503413572        1 TEMP              0 ****  ****    0 ROOT


##########                                Name:    ZINC000534799364
##########                DOCK_Rotatable_Bonds:                   4
##########                         Heavy_Atoms:                  29
##########                    Molecular_Weight:             391.491
##########                DOCK_Rotatable_Bonds:                   4
##########                       Formal_Charge:           0.0199998
##########                     HBond_Acceptors:                   6
##########                        HBond_Donors:                   0
##########                         Heavy_Atoms:                  29
##########                          Grid_Score:          -30.756950
##########                     Grid_vdw_energy:          -29.274111
##########                      Grid_es_energy:           -1.482841
##########           Internal_energy_repulsive:            8.423853

@<TRIPOS>MOLECULE
ZINC000534799364
 55 59 1 0 0
SMALL
USER_CHARGES


@<TRIPOS>ATOM
      1 C1         -0.1920    1.9396   44.7923 C.3     1  ZINC000534799364   -0.1100
      2 C2         -1.0284    0.8816   45.4647 C.ar    1  ZINC000534799364   -0.0200
      3 C3         -1.5926   -0.1491   44.7316 C.ar    1  ZINC000534799364   -0.1700
      4 C4         -2.3543   -1.1024   45.3820 C.ar    1  ZINC000534799364    0.1000
      5 N5         -2.5482   -1.0415   46.6847 N.ar    1  ZINC000534799364   -0.4800
      6 C6         -2.0298   -0.0781   47.4200 C.ar    1  ZINC000534799364    0.0800
      7 C7         -1.2482    0.9128   46.8400 C.ar    1  ZINC000534799364    0.0300
      8 N8         -0.7001    1.9321   47.6226 N.3     1  ZINC000534799364   -0.5000
      9 C9          0.5134    1.4720   48.3120 C.3     1  ZINC000534799364    0.0600
     10 C10         1.1260    2.6369   49.0930 C.3     1  ZINC000534799364    0.0600
     11 N11         0.1404    3.1508   50.0544 N.3     1  ZINC000534799364   -0.5300
     12 C12         0.7169    4.2226   50.8773 C.3     1  ZINC000534799364    0.1400
     13 C13         0.2371    4.0780   52.2985 C.2     1  ZINC000534799364    0.1100
     14 N14        -0.9792    3.7714   52.6691 N.2     1  ZINC000534799364   -0.2800
     15 N15        -1.0149    3.7361   54.0682 N.pl3   1  ZINC000534799364   -0.3100
     16 C16        -2.1365    3.4448   54.8581 C.ar    1  ZINC000534799364    0.1500
     17 C17        -2.0580    2.4711   55.8445 C.ar    1  ZINC000534799364   -0.1000
     18 C18        -3.1636    2.1857   56.6213 C.ar    1  ZINC000534799364   -0.1300
     19 C19        -4.3500    2.8700   56.4168 C.ar    1  ZINC000534799364    0.1000
     20 F20        -5.4304    2.5897   57.1779 F       1  ZINC000534799364   -0.1300
     21 C21        -4.4302    3.8417   55.4333 C.ar    1  ZINC000534799364   -0.1300
     22 C22        -3.3250    4.1340   54.6583 C.ar    1  ZINC000534799364   -0.0800
     23 C23         0.2259    4.0332   54.5240 C.2     1  ZINC000534799364    0.0500
     24 C24         1.0194    4.2431   53.4502 C.2     1  ZINC000534799364   -0.2200
     25 C25         2.4258    4.5803   53.8965 C.3     1  ZINC000534799364   -0.0400
     26 C26         2.2904    4.9724   55.3841 C.3     1  ZINC000534799364   -0.1200
     27 C27         1.0166    4.2042   55.8028 C.3     1  ZINC000534799364   -0.0500
     28 C28        -1.0731    3.6109   49.3650 C.3     1  ZINC000534799364    0.0600
     29 C29        -1.6857    2.4460   48.5839 C.3     1  ZINC000534799364    0.0600
     30 H30         0.8613    1.6670   44.8592 H       1  ZINC000534799364    0.0800
     31 H31        -0.4808    2.0193   43.7443 H       1  ZINC000534799364    0.0600
     32 H32        -0.3515    2.8976   45.2871 H       1  ZINC000534799364    0.0800
     33 H33        -1.4398   -0.2072   43.6640 H       1  ZINC000534799364    0.1400
     34 H34        -2.7968   -1.9079   44.8148 H       1  ZINC000534799364    0.1600
     35 H35        -2.2111   -0.0614   48.4845 H       1  ZINC000534799364    0.1500
     36 H36         0.2573    0.6671   49.0009 H       1  ZINC000534799364    0.0500
     37 H37         1.2326    1.1080   47.5782 H       1  ZINC000534799364    0.0800
     38 H38         2.0101    2.2909   49.6285 H       1  ZINC000534799364    0.0900
     39 H39         1.4072    3.4308   48.4010 H       1  ZINC000534799364    0.0500
     40 H40         1.8045    4.1548   50.8522 H       1  ZINC000534799364    0.1000
     41 H41         0.4040    5.1901   50.4847 H       1  ZINC000534799364    0.0500
     42 H42        -1.1330    1.9370   56.0040 H       1  ZINC000534799364    0.1400
     43 H43        -3.1030    1.4280   57.3885 H       1  ZINC000534799364    0.1500
     44 H44        -5.3564    4.3741   55.2749 H       1  ZINC000534799364    0.1500
     45 H45        -3.3879    4.8920   53.8916 H       1  ZINC000534799364    0.1400
     46 H46         3.0751    3.7111   53.7916 H       1  ZINC000534799364    0.0800
     47 H47         2.8162    5.4176   53.3180 H       1  ZINC000534799364    0.0700
     48 H48         3.1537    4.6332   55.9563 H       1  ZINC000534799364    0.0800
     49 H49         2.1518    6.0482   55.4920 H       1  ZINC000534799364    0.0800
     50 H50         0.4435    4.7858   56.5248 H       1  ZINC000534799364    0.0800
     51 H51         1.2804    3.2330   56.2215 H       1  ZINC000534799364    0.0900
     52 H52        -1.7923    3.9749   50.0988 H       1  ZINC000534799364    0.0900
     53 H53        -0.8169    4.4158   48.6762 H       1  ZINC000534799364    0.0500
     54 H54        -2.5698    2.7920   48.0485 H       1  ZINC000534799364    0.0800
     55 H55        -1.9667    1.6521   49.2759 H       1  ZINC000534799364    0.0500
@<TRIPOS>BOND
     1     1     2    1
     2     1    30    1
     3     1    31    1
     4     1    32    1
     5     2     7   ar
     6     2     3   ar
     7     3     4   ar
     8     3    33    1
     9     4     5   ar
    10     4    34    1
    11     5     6   ar
    12     6     7   ar
    13     6    35    1
    14     7     8    1
    15     8    29    1
    16     8     9    1
    17     9    10    1
    18     9    36    1
    19     9    37    1
    20    10    11    1
    21    10    38    1
    22    10    39    1
    23    11    12    1
    24    11    28    1
    25    12    13    1
    26    12    40    1
    27    12    41    1
    28    13    24    1
    29    13    14    2
    30    14    15    1
    31    15    16    1
    32    15    23    1
    33    16    22   ar
    34    16    17   ar
    35    17    18   ar
    36    17    42    1
    37    18    19   ar
    38    18    43    1
    39    19    20    1
    40    19    21   ar
    41    21    22   ar
    42    21    44    1
    43    22    45    1
    44    23    27    1
    45    23    24    2
    46    24    25    1
    47    25    26    1
    48    25    46    1
    49    25    47    1
    50    26    27    1
    51    26    48    1
    52    26    49    1
    53    27    50    1
    54    27    51    1
    55    28    29    1
    56    28    52    1
    57    28    53    1
    58    29    54    1
    59    29    55    1
@<TRIPOS>SUBSTRUCTURE
     1 ZINC000534799364        1 TEMP              0 ****  ****    0 ROOT


##########                                Name:    ZINC000443394081
##########                DOCK_Rotatable_Bonds:                   8
##########                         Heavy_Atoms:                  27
##########                    Molecular_Weight:             389.878
##########                DOCK_Rotatable_Bonds:                   8
##########                       Formal_Charge:          -0.0300003
##########                     HBond_Acceptors:                   6
##########                        HBond_Donors:                   1
##########                         Heavy_Atoms:                  27
##########                          Grid_Score:          -30.753782
##########                     Grid_vdw_energy:          -30.424856
##########                      Grid_es_energy:           -0.328926
##########           Internal_energy_repulsive:           33.176987

@<TRIPOS>MOLECULE
ZINC000443394081
 51 53 1 0 0
SMALL
USER_CHARGES


@<TRIPOS>ATOM
      1 C1        -13.8460   -3.4273   59.2941 C.3     1  ZINC000443394081    0.0200
      2 O2        -12.6207   -3.6463   58.5921 O.3     1  ZINC000443394081   -0.3000
      3 C3        -11.7875   -2.5801   58.4568 C.ar    1  ZINC000443394081    0.1000
      4 C4        -10.9243   -2.2439   59.4811 C.ar    1  ZINC000443394081   -0.1200
      5 C5        -10.0690   -1.1477   59.3386 C.ar    1  ZINC000443394081   -0.1300
      6 C6         -9.1441   -0.7843   60.4300 C.2     1  ZINC000443394081    0.5700
      7 O7         -8.1774   -1.4831   60.6656 O.2     1  ZINC000443394081   -0.4900
      8 N8         -9.3710    0.3220   61.1653 N.am    1  ZINC000443394081   -0.6100
      9 C9        -10.4990    1.2547   60.9886 C.3     1  ZINC000443394081    0.0900
     10 C10       -10.6705    1.9358   62.3694 C.3     1  ZINC000443394081   -0.1300
     11 C11        -9.1964    2.0777   62.8319 C.3     1  ZINC000443394081   -0.1000
     12 H12        -8.7398    2.9671   62.3976 H       1  ZINC000443394081    0.0900
     13 C13        -9.1097    2.1180   64.3589 C.3     1  ZINC000443394081   -0.1500
     14 C14        -8.5383    0.7954   62.2808 C.3     1  ZINC000443394081    0.1400
     15 H15        -7.5350    1.0197   61.9185 H       1  ZINC000443394081    0.0800
     16 C16        -8.4692   -0.2674   63.3792 C.3     1  ZINC000443394081    0.0600
     17 O17        -7.4115    0.0522   64.2854 O.3     1  ZINC000443394081   -0.5400
     18 C18       -10.0909   -0.3972   58.1609 C.ar    1  ZINC000443394081   -0.1000
     19 C19       -10.9552   -0.7377   57.1426 C.ar    1  ZINC000443394081   -0.1800
     20 C20       -11.8006   -1.8296   57.2817 C.ar    1  ZINC000443394081    0.1300
     21 O21       -12.6503   -2.1611   56.2756 O.3     1  ZINC000443394081   -0.3000
     22 C22       -12.0685   -2.6955   55.0847 C.3     1  ZINC000443394081    0.1000
     23 C23       -12.6740   -2.0183   53.8823 C.ar    1  ZINC000443394081   -0.0800
     24 C24       -14.0064   -1.6516   53.8935 C.ar    1  ZINC000443394081   -0.0800
     25 C25       -14.5620   -1.0304   52.7904 C.ar    1  ZINC000443394081   -0.1100
     26 C26       -13.7855   -0.7760   51.6756 C.ar    1  ZINC000443394081   -0.1000
     27 C27       -12.4526   -1.1423   51.6632 C.ar    1  ZINC000443394081   -0.1100
     28 C28       -11.8945   -1.7583   52.7689 C.ar    1  ZINC000443394081   -0.0300
     29 Cl29      -10.2208   -2.2185   52.7541 Cl      1  ZINC000443394081   -0.0700
     30 H30       -14.4152   -4.3562   59.3301 H       1  ZINC000443394081    0.1000
     31 H31       -13.6287   -3.0948   60.3091 H       1  ZINC000443394081    0.0600
     32 H32       -14.4287   -2.6638   58.7786 H       1  ZINC000443394081    0.0600
     33 H33       -10.9105   -2.8265   60.3903 H       1  ZINC000443394081    0.1500
     34 H34       -10.2617    1.9969   60.2264 H       1  ZINC000443394081    0.0700
     35 H35       -11.4036    0.7094   60.7196 H       1  ZINC000443394081    0.0800
     36 H36       -11.1437    2.9124   62.2671 H       1  ZINC000443394081    0.0900
     37 H37       -11.2345    1.2996   63.0514 H       1  ZINC000443394081    0.0800
     38 H38        -9.5441    1.2075   64.7716 H       1  ZINC000443394081    0.0600
     39 H39        -8.0651    2.1919   64.6617 H       1  ZINC000443394081    0.0600
     40 H40        -9.6579    2.9833   64.7313 H       1  ZINC000443394081    0.0600
     41 H41        -9.4154   -0.2933   63.9198 H       1  ZINC000443394081    0.0600
     42 H42        -8.2806   -1.2424   62.9300 H       1  ZINC000443394081    0.0400
     43 H43        -6.5329    0.0479   63.8815 H       1  ZINC000443394081    0.3700
     44 H44        -9.4310    0.4503   58.0483 H       1  ZINC000443394081    0.1400
     45 H45       -10.9714   -0.1563   56.2327 H       1  ZINC000443394081    0.1400
     46 H46       -10.9925   -2.5213   55.0963 H       1  ZINC000443394081    0.0800
     47 H47       -12.2627   -3.7668   55.0345 H       1  ZINC000443394081    0.0800
     48 H48       -14.6138   -1.8508   54.7640 H       1  ZINC000443394081    0.1400
     49 H49       -15.6034   -0.7440   52.7996 H       1  ZINC000443394081    0.1300
     50 H50       -14.2203   -0.2914   50.8139 H       1  ZINC000443394081    0.1300
     51 H51       -11.8459   -0.9434   50.7920 H       1  ZINC000443394081    0.1400
@<TRIPOS>BOND
     1     1     2    1
     2     1    30    1
     3     1    31    1
     4     1    32    1
     5     2     3    1
     6     3    20   ar
     7     3     4   ar
     8     4     5   ar
     9     4    33    1
    10     5     6    1
    11     5    18   ar
    12     6     7    2
    13     6     8   am
    14     8    14    1
    15     8     9    1
    16     9    10    1
    17     9    34    1
    18     9    35    1
    19    10    11    1
    20    10    36    1
    21    10    37    1
    22    11    12    1
    23    11    13    1
    24    11    14    1
    25    13    38    1
    26    13    39    1
    27    13    40    1
    28    14    15    1
    29    14    16    1
    30    16    17    1
    31    16    41    1
    32    16    42    1
    33    17    43    1
    34    18    19   ar
    35    18    44    1
    36    19    20   ar
    37    19    45    1
    38    20    21    1
    39    21    22    1
    40    22    23    1
    41    22    46    1
    42    22    47    1
    43    23    28   ar
    44    23    24   ar
    45    24    25   ar
    46    24    48    1
    47    25    26   ar
    48    25    49    1
    49    26    27   ar
    50    26    50    1
    51    27    28   ar
    52    27    51    1
    53    28    29    1
@<TRIPOS>SUBSTRUCTURE
     1 ZINC000443394081        1 TEMP              0 ****  ****    0 ROOT


##########                                Name:    ZINC000432058199
##########                DOCK_Rotatable_Bonds:                   5
##########                         Heavy_Atoms:                  30
##########                    Molecular_Weight:             406.441
##########                DOCK_Rotatable_Bonds:                   5
##########                       Formal_Charge:        -4.02331e-07
##########                     HBond_Acceptors:                   8
##########                        HBond_Donors:                   1
##########                         Heavy_Atoms:                  30
##########                          Grid_Score:          -30.752935
##########                     Grid_vdw_energy:          -28.857433
##########                      Grid_es_energy:           -1.895501
##########           Internal_energy_repulsive:           16.662453

@<TRIPOS>MOLECULE
ZINC000432058199
 52 55 1 0 0
SMALL
USER_CHARGES


@<TRIPOS>ATOM
      1 C1         -1.6714    2.7425   57.2103 C.3     1  ZINC000432058199    0.0300
      2 O2         -0.5237    1.9675   57.5631 O.3     1  ZINC000432058199   -0.3100
      3 C3          0.5681    2.0819   56.7619 C.ar    1  ZINC000432058199    0.1300
      4 C4          1.7587    1.4647   57.1192 C.ar    1  ZINC000432058199   -0.1900
      5 C5          2.8717    1.5785   56.3071 C.ar    1  ZINC000432058199   -0.0800
      6 C6          2.8049    2.3068   55.1364 C.ar    1  ZINC000432058199   -0.1100
      7 C7          1.6130    2.9293   54.7702 C.ar    1  ZINC000432058199    0.0100
      8 C8          1.5385    3.7126   53.5116 C.2     1  ZINC000432058199    0.2100
      9 N9          2.5384    4.0149   52.7252 N.2     1  ZINC000432058199   -0.3700
     10 O10         2.1436    4.6641   51.7797 O.3     1  ZINC000432058199    0.1200
     11 C11         0.8223    4.8459   51.8691 C.2     1  ZINC000432058199    0.1600
     12 C12        -0.0458    5.5975   50.8932 C.3     1  ZINC000432058199    0.2500
     13 H13         0.5306    6.4046   50.4411 H       1  ZINC000432058199    0.1500
     14 C14        -1.2524    6.1828   51.6297 C.3     1  ZINC000432058199   -0.1700
     15 N15        -0.5091    4.6828   49.8468 N.am    1  ZINC000432058199   -0.5800
     16 C16        -0.4063    4.9270   48.5354 C.2     1  ZINC000432058199    0.7000
     17 O17         0.0841    5.9384   48.0731 O.2     1  ZINC000432058199   -0.5100
     18 N18        -0.9062    3.9281   47.7859 N.am    1  ZINC000432058199   -0.7200
     19 C19        -1.3971    2.9031   48.7231 C.3     1  ZINC000432058199    0.1400
     20 H20        -2.4701    2.7547   48.6017 H       1  ZINC000432058199    0.1400
     21 C21        -0.6581    1.6049   48.5239 C.ar    1  ZINC000432058199   -0.1000
     22 C22        -1.3625    0.4318   48.3269 C.ar    1  ZINC000432058199   -0.1000
     23 C23        -0.6846   -0.7590   48.1443 C.ar    1  ZINC000432058199   -0.0800
     24 C24        -1.4524   -2.0379   47.9300 C.3     1  ZINC000432058199   -0.1200
     25 C25         0.6975   -0.7766   48.1576 C.ar    1  ZINC000432058199   -0.1100
     26 C26         1.4018    0.3965   48.3541 C.ar    1  ZINC000432058199   -0.0800
     27 C27         2.9087    0.3773   48.3692 C.3     1  ZINC000432058199   -0.1200
     28 C28         0.7241    1.5880   48.5326 C.ar    1  ZINC000432058199   -0.1000
     29 C29        -1.0864    3.4887   50.0863 C.2     1  ZINC000432058199    0.5300
     30 O30        -1.3149    2.9895   51.1672 O.2     1  ZINC000432058199   -0.4500
     31 N31         0.4230    4.2423   52.9608 N.2     1  ZINC000432058199   -0.4500
     32 C32         0.4909    2.8100   55.5857 C.ar    1  ZINC000432058199   -0.1200
     33 H33        -2.4692    2.5585   57.9299 H       1  ZINC000432058199    0.1000
     34 H34        -1.4115    3.8011   57.2189 H       1  ZINC000432058199    0.0600
     35 H35        -2.0087    2.4592   56.2133 H       1  ZINC000432058199    0.0600
     36 H36         1.8159    0.8941   58.0343 H       1  ZINC000432058199    0.1400
     37 H37         3.7961    1.0966   56.5896 H       1  ZINC000432058199    0.1400
     38 H38         3.6763    2.3945   54.5044 H       1  ZINC000432058199    0.1400
     39 H39        -1.8287    5.3757   52.0818 H       1  ZINC000432058199    0.0900
     40 H40        -0.9077    6.8634   52.4083 H       1  ZINC000432058199    0.0900
     41 H41        -1.8802    6.7265   50.9237 H       1  ZINC000432058199    0.0900
     42 H42        -0.9379    3.8903   46.8171 H       1  ZINC000432058199    0.4500
     43 H43        -2.4423    0.4457   48.3160 H       1  ZINC000432058199    0.1200
     44 H44        -1.6253   -2.1836   46.8636 H       1  ZINC000432058199    0.0700
     45 H45        -0.8780   -2.8767   48.3229 H       1  ZINC000432058199    0.0700
     46 H46        -2.4094   -1.9784   48.4484 H       1  ZINC000432058199    0.0700
     47 H47         1.2271   -1.7070   48.0149 H       1  ZINC000432058199    0.1300
     48 H48         3.2841    0.5352   47.3582 H       1  ZINC000432058199    0.0700
     49 H49         3.2756    1.1699   49.0212 H       1  ZINC000432058199    0.0700
     50 H50         3.2560   -0.5875   48.7392 H       1  ZINC000432058199    0.0700
     51 H51         1.2743    2.5045   48.6861 H       1  ZINC000432058199    0.1300
     52 H52        -0.4351    3.2906   55.3062 H       1  ZINC000432058199    0.1400
@<TRIPOS>BOND
     1     1     2    1
     2     1    33    1
     3     1    34    1
     4     1    35    1
     5     2     3    1
     6     3    32   ar
     7     3     4   ar
     8     4     5   ar
     9     4    36    1
    10     5     6   ar
    11     5    37    1
    12     6     7   ar
    13     6    38    1
    14     7     8    1
    15     7    32   ar
    16     8    31    1
    17     8     9    2
    18     9    10    1
    19    10    11    1
    20    11    12    1
    21    11    31    2
    22    12    13    1
    23    12    14    1
    24    12    15    1
    25    14    39    1
    26    14    40    1
    27    14    41    1
    28    15    29   am
    29    15    16   am
    30    16    17    2
    31    16    18   am
    32    18    19    1
    33    18    42    1
    34    19    20    1
    35    19    21    1
    36    19    29    1
    37    21    28   ar
    38    21    22   ar
    39    22    23   ar
    40    22    43    1
    41    23    24    1
    42    23    25   ar
    43    24    44    1
    44    24    45    1
    45    24    46    1
    46    25    26   ar
    47    25    47    1
    48    26    27    1
    49    26    28   ar
    50    27    48    1
    51    27    49    1
    52    27    50    1
    53    28    51    1
    54    29    30    2
    55    32    52    1
@<TRIPOS>SUBSTRUCTURE
     1 ZINC000432058199        1 TEMP              0 ****  ****    0 ROOT


##########                                Name:    ZINC000790735374
##########                DOCK_Rotatable_Bonds:                   5
##########                         Heavy_Atoms:                  25
##########                    Molecular_Weight:             353.445
##########                DOCK_Rotatable_Bonds:                   5
##########                       Formal_Charge:                   0
##########                     HBond_Acceptors:                   6
##########                        HBond_Donors:                   1
##########                         Heavy_Atoms:                  25
##########                          Grid_Score:          -30.746517
##########                     Grid_vdw_energy:          -29.213768
##########                      Grid_es_energy:           -1.532748
##########           Internal_energy_repulsive:            9.743020

@<TRIPOS>MOLECULE
ZINC000790735374
 44 47 1 0 0
SMALL
USER_CHARGES


@<TRIPOS>ATOM
      1 O1         -3.2632    4.4401   49.9427 O.2     1  ZINC000790735374   -0.5100
      2 C2         -2.1435    4.8302   49.6877 C.2     1  ZINC000790735374    0.5000
      3 N3         -1.1876    3.9490   49.3325 N.am    1  ZINC000790735374   -0.7200
      4 C4         -1.4995    2.5194   49.2602 C.3     1  ZINC000790735374    0.1400
      5 C5         -0.6743    1.8730   48.1457 C.3     1  ZINC000790735374   -0.0300
      6 H6         -1.0799    2.1697   47.1784 H       1  ZINC000790735374    0.1100
      7 S7          1.0459    2.4326   48.2717 S.3     1  ZINC000790735374   -0.2400
      8 C8          1.8745    1.2452   47.1680 C.3     1  ZINC000790735374   -0.0800
      9 C9          1.7155   -0.1409   47.7752 C.3     1  ZINC000790735374   -0.0800
     10 C10         0.2910   -0.4987   48.0906 C.ar    1  ZINC000790735374   -0.0700
     11 C11         0.0490   -1.8721   48.2009 C.ar    1  ZINC000790735374   -0.1200
     12 C12        -1.2009   -2.3600   48.5015 C.ar    1  ZINC000790735374   -0.1100
     13 C13        -2.2460   -1.4776   48.7030 C.ar    1  ZINC000790735374   -0.1200
     14 C14        -2.0161   -0.1254   48.5900 C.ar    1  ZINC000790735374   -0.1100
     15 C15        -0.7466    0.3719   48.2778 C.ar    1  ZINC000790735374   -0.0800
     16 C16        -1.8226    6.3007   49.7621 C.3     1  ZINC000790735374    0.0300
     17 H17        -0.7623    6.4570   49.9609 H       1  ZINC000790735374    0.1500
     18 C18        -2.2566    7.0285   48.4674 C.3     1  ZINC000790735374   -0.1400
     19 C19        -3.6438    7.5304   48.8206 C.2     1  ZINC000790735374    0.1200
     20 C20        -4.6572    8.0173   47.8636 C.ar    1  ZINC000790735374   -0.1000
     21 C21        -4.3857    8.0423   46.4904 C.ar    1  ZINC000790735374   -0.0400
     22 C22        -5.3697    8.5074   45.6357 C.ar    1  ZINC000790735374   -0.1700
     23 C23        -6.5782    8.9286   46.1600 C.ar    1  ZINC000790735374    0.1200
     24 N24        -6.8066    8.8939   47.4590 N.ar    1  ZINC000790735374   -0.4800
     25 C25        -5.9048    8.4552   48.3122 C.ar    1  ZINC000790735374    0.1400
     26 N26        -3.7860    7.4587   50.1015 N.2     1  ZINC000790735374   -0.2700
     27 O27        -2.6361    6.9569   50.7556 O.3     1  ZINC000790735374   -0.1600
     28 H28        -0.2930    4.2612   49.1247 H       1  ZINC000790735374    0.4100
     29 H29        -1.2583    2.0463   50.2120 H       1  ZINC000790735374    0.0800
     30 H30        -2.5608    2.3894   49.0485 H       1  ZINC000790735374    0.0900
     31 H31         1.4108    1.2718   46.1819 H       1  ZINC000790735374    0.0900
     32 H32         2.9327    1.4934   47.0861 H       1  ZINC000790735374    0.1100
     33 H33         2.1131   -0.8759   47.0754 H       1  ZINC000790735374    0.0900
     34 H34         2.2988   -0.1877   48.6948 H       1  ZINC000790735374    0.0900
     35 H35         0.8627   -2.5653   48.0462 H       1  ZINC000790735374    0.1200
     36 H36        -1.3652   -3.4245   48.5792 H       1  ZINC000790735374    0.1300
     37 H37        -3.2319   -1.8454   48.9459 H       1  ZINC000790735374    0.1300
     38 H38        -2.8315    0.5648   48.7481 H       1  ZINC000790735374    0.1300
     39 H39        -1.5879    7.8611   48.2488 H       1  ZINC000790735374    0.1200
     40 H40        -2.2984    6.3338   47.6285 H       1  ZINC000790735374    0.1100
     41 H41        -3.4327    7.7077   46.1080 H       1  ZINC000790735374    0.1500
     42 H42        -5.1956    8.5415   44.5704 H       1  ZINC000790735374    0.1500
     43 H43        -7.3477    9.2924   45.4951 H       1  ZINC000790735374    0.1600
     44 H44        -6.1288    8.4416   49.3686 H       1  ZINC000790735374    0.1600
@<TRIPOS>BOND
     1     1     2    2
     2     2     3   am
     3     2    16    1
     4     3     4    1
     5     3    28    1
     6     4     5    1
     7     4    29    1
     8     4    30    1
     9     5     6    1
    10     5    15    1
    11     5     7    1
    12     7     8    1
    13     8     9    1
    14     8    31    1
    15     8    32    1
    16     9    10    1
    17     9    33    1
    18     9    34    1
    19    10    15   ar
    20    10    11   ar
    21    11    12   ar
    22    11    35    1
    23    12    13   ar
    24    12    36    1
    25    13    14   ar
    26    13    37    1
    27    14    15   ar
    28    14    38    1
    29    16    17    1
    30    16    27    1
    31    16    18    1
    32    18    19    1
    33    18    39    1
    34    18    40    1
    35    19    20    1
    36    19    26    2
    37    20    25   ar
    38    20    21   ar
    39    21    22   ar
    40    21    41    1
    41    22    23   ar
    42    22    42    1
    43    23    24   ar
    44    23    43    1
    45    24    25   ar
    46    25    44    1
    47    26    27    1
@<TRIPOS>SUBSTRUCTURE
     1 ZINC000790735374        1 TEMP              0 ****  ****    0 ROOT


##########                                Name:    ZINC000129637895
##########                DOCK_Rotatable_Bonds:                   7
##########                         Heavy_Atoms:                  26
##########                    Molecular_Weight:             374.464
##########                DOCK_Rotatable_Bonds:                   7
##########                       Formal_Charge:        -5.51343e-07
##########                     HBond_Acceptors:                   8
##########                        HBond_Donors:                   1
##########                         Heavy_Atoms:                  26
##########                          Grid_Score:          -30.740725
##########                     Grid_vdw_energy:          -30.587719
##########                      Grid_es_energy:           -0.153006
##########           Internal_energy_repulsive:           12.650738

@<TRIPOS>MOLECULE
ZINC000129637895
 48 50 1 0 0
SMALL
USER_CHARGES


@<TRIPOS>ATOM
      1 C1         -8.7403    1.2178   52.8699 C.3     1  ZINC000129637895   -0.1500
      2 C2         -8.8299    2.4403   53.7855 C.3     1  ZINC000129637895   -0.0500
      3 C3         -7.7301    2.3793   54.8139 C.2     1  ZINC000129637895    0.0300
      4 C4         -6.4753    2.7956   54.5661 C.2     1  ZINC000129637895   -0.0200
      5 N5         -6.0095    3.3295   53.3653 N.am    1  ZINC000129637895   -0.5900
      6 C6         -5.5437    4.5937   53.3256 C.2     1  ZINC000129637895    0.5000
      7 O7         -5.5284    5.2669   54.3359 O.2     1  ZINC000129637895   -0.4800
      8 C8         -5.0467    5.1658   52.0398 C.2     1  ZINC000129637895    0.5200
      9 O9         -5.7867    5.8323   51.3460 O.2     1  ZINC000129637895   -0.5100
     10 N10        -3.7762    4.9425   51.6492 N.am    1  ZINC000129637895   -0.5800
     11 C11        -2.8649    4.1327   52.4719 C.3     1  ZINC000129637895    0.0800
     12 C12        -2.2331    3.0563   51.5830 C.3     1  ZINC000129637895    0.0400
     13 N13        -1.6136    3.6934   50.4132 N.3     1  ZINC000129637895   -0.4900
     14 C14        -0.8874    2.7651   49.6637 C.ar    1  ZINC000129637895    0.1500
     15 C15         0.4460    3.0084   49.3581 C.ar    1  ZINC000129637895   -0.2100
     16 C16         1.1642    2.0898   48.6171 C.ar    1  ZINC000129637895   -0.0500
     17 C17         0.5591    0.9279   48.1778 C.ar    1  ZINC000129637895   -0.2300
     18 C18        -0.7728    0.6795   48.4801 C.ar    1  ZINC000129637895    0.1500
     19 O19        -1.3662   -0.4640   48.0476 O.3     1  ZINC000129637895   -0.3200
     20 C20        -0.6997   -1.6929   48.3435 C.3     1  ZINC000129637895    0.0300
     21 C21        -1.4952    1.5956   49.2278 C.ar    1  ZINC000129637895   -0.1700
     22 C22        -2.6170    4.3716   49.5819 C.3     1  ZINC000129637895    0.0400
     23 C23        -3.2663    5.4969   50.3860 C.3     1  ZINC000129637895    0.1100
     24 S24        -5.5251    2.5472   56.0290 S.3     1  ZINC000129637895    0.2400
     25 C25        -6.8983    1.9124   56.8250 C.2     1  ZINC000129637895   -0.0300
     26 N26        -7.9173    1.9187   56.0344 N.2     1  ZINC000129637895   -0.4500
     27 H27        -7.7730    1.2102   52.3675 H       1  ZINC000129637895    0.0600
     28 H28        -8.8483    0.3102   53.4639 H       1  ZINC000129637895    0.0500
     29 H29        -9.5358    1.2619   52.1260 H       1  ZINC000129637895    0.0700
     30 H30        -8.7220    3.3478   53.1915 H       1  ZINC000129637895    0.0900
     31 H31        -9.7972    2.4479   54.2880 H       1  ZINC000129637895    0.0700
     32 H32        -6.0206    2.7913   52.5585 H       1  ZINC000129637895    0.4300
     33 H33        -2.0837    4.7692   52.8875 H       1  ZINC000129637895    0.0900
     34 H34        -3.4234    3.6593   53.2794 H       1  ZINC000129637895    0.1400
     35 H35        -1.4732    2.5173   52.1487 H       1  ZINC000129637895    0.1000
     36 H36        -3.0034    2.3595   51.2523 H       1  ZINC000129637895    0.0500
     37 H37         0.9210    3.9161   49.6996 H       1  ZINC000129637895    0.1300
     38 H38         2.2006    2.2804   48.3805 H       1  ZINC000129637895    0.1300
     39 H39         1.1230    0.2121   47.5982 H       1  ZINC000129637895    0.1300
     40 H40         0.2911   -1.6873   47.8894 H       1  ZINC000129637895    0.0600
     41 H41        -0.6037   -1.8032   49.4236 H       1  ZINC000129637895    0.0600
     42 H42        -1.2782   -2.5255   47.9433 H       1  ZINC000129637895    0.1000
     43 H43        -2.5314    1.4038   49.4642 H       1  ZINC000129637895    0.1300
     44 H44        -2.1355    4.7864   48.6964 H       1  ZINC000129637895    0.1000
     45 H45        -3.3820    3.6566   49.2791 H       1  ZINC000129637895    0.0500
     46 H46        -4.0887    5.9276   49.8148 H       1  ZINC000129637895    0.1100
     47 H47        -2.5254    6.2662   50.6033 H       1  ZINC000129637895    0.0900
     48 H48        -6.9117    1.5603   57.8459 H       1  ZINC000129637895    0.2000
@<TRIPOS>BOND
     1     1     2    1
     2     1    27    1
     3     1    28    1
     4     1    29    1
     5     2     3    1
     6     2    30    1
     7     2    31    1
     8     3    26    1
     9     3     4    2
    10     4     5    1
    11     4    24    1
    12     5     6   am
    13     5    32    1
    14     6     7    2
    15     6     8    1
    16     8     9    2
    17     8    10   am
    18    10    23    1
    19    10    11    1
    20    11    12    1
    21    11    33    1
    22    11    34    1
    23    12    13    1
    24    12    35    1
    25    12    36    1
    26    13    14    1
    27    13    22    1
    28    14    21   ar
    29    14    15   ar
    30    15    16   ar
    31    15    37    1
    32    16    17   ar
    33    16    38    1
    34    17    18   ar
    35    17    39    1
    36    18    19    1
    37    18    21   ar
    38    19    20    1
    39    20    40    1
    40    20    41    1
    41    20    42    1
    42    21    43    1
    43    22    23    1
    44    22    44    1
    45    22    45    1
    46    23    46    1
    47    23    47    1
    48    24    25    1
    49    25    26    2
    50    25    48    1
@<TRIPOS>SUBSTRUCTURE
     1 ZINC000129637895        1 TEMP              0 ****  ****    0 ROOT


##########                                Name:    ZINC000805177769
##########                DOCK_Rotatable_Bonds:                  10
##########                         Heavy_Atoms:                  30
##########                    Molecular_Weight:             417.548
##########                DOCK_Rotatable_Bonds:                  10
##########                       Formal_Charge:           0.0199995
##########                     HBond_Acceptors:                   7
##########                        HBond_Donors:                   1
##########                         Heavy_Atoms:                  30
##########                          Grid_Score:          -30.660248
##########                     Grid_vdw_energy:          -30.753695
##########                      Grid_es_energy:            0.093446
##########           Internal_energy_repulsive:           32.243576

@<TRIPOS>MOLECULE
ZINC000805177769
 65 66 1 0 0
SMALL
USER_CHARGES


@<TRIPOS>ATOM
      1 C1        -10.8550   -2.0699   53.3096 C.3     1  ZINC000805177769   -0.1200
      2 C2        -11.4986   -1.8573   54.6556 C.ar    1  ZINC000805177769   -0.0800
      3 C3        -11.3843   -0.6354   55.2911 C.ar    1  ZINC000805177769   -0.1200
      4 C4        -11.9748   -0.4404   56.5260 C.ar    1  ZINC000805177769   -0.1100
      5 C5        -12.6797   -1.4674   57.1248 C.ar    1  ZINC000805177769   -0.0900
      6 C6        -13.3229   -1.2551   58.4709 C.3     1  ZINC000805177769   -0.0900
      7 C7        -12.3482   -1.6735   59.5736 C.3     1  ZINC000805177769    0.1500
      8 H8        -11.6731   -2.4389   59.1906 H       1  ZINC000805177769    0.1000
      9 C9        -13.1324   -2.2335   60.7619 C.3     1  ZINC000805177769   -0.1700
     10 N10       -11.5712   -0.5093   60.0061 N.am    1  ZINC000805177769   -0.6900
     11 C11       -10.2244   -0.5599   60.0056 C.2     1  ZINC000805177769    0.5100
     12 O12        -9.6554   -1.5704   59.6483 O.2     1  ZINC000805177769   -0.5100
     13 C13        -9.4318    0.6284   60.4452 C.2     1  ZINC000805177769    0.5200
     14 O14        -9.4542    0.9765   61.6074 O.2     1  ZINC000805177769   -0.5200
     15 N15        -8.6921    1.3134   59.5506 N.am    1  ZINC000805177769   -0.5900
     16 C16        -7.8689    2.4952   59.8453 C.3     1  ZINC000805177769    0.1100
     17 C17        -7.1870    2.9189   58.5274 C.3     1  ZINC000805177769   -0.1500
     18 C18        -7.2186    1.6161   57.6853 C.3     1  ZINC000805177769    0.1500
     19 H19        -6.3901    0.9593   57.9505 H       1  ZINC000805177769    0.1200
     20 N20        -7.2083    1.9171   56.2516 N.am    1  ZINC000805177769   -0.5900
     21 C21        -8.3805    1.6070   55.4294 C.3     1  ZINC000805177769    0.0800
     22 C22        -6.1203    2.4793   55.6889 C.2     1  ZINC000805177769    0.6600
     23 O23        -5.1485    2.7380   56.3710 O.2     1  ZINC000805177769   -0.5600
     24 O24        -6.1102    2.7546   54.3710 O.3     1  ZINC000805177769   -0.3600
     25 C25        -6.1097    4.1558   53.9902 C.3     1  ZINC000805177769    0.1400
     26 C26        -7.1471    4.9111   54.8235 C.3     1  ZINC000805177769   -0.1800
     27 C27        -4.7229    4.7517   54.2403 C.3     1  ZINC000805177769   -0.1400
     28 C28        -6.4586    4.2810   52.5059 C.3     1  ZINC000805177769   -0.1800
     29 C29        -8.5697    0.9978   58.1158 C.3     1  ZINC000805177769    0.0900
     30 C30       -12.7953   -2.6894   56.4885 C.ar    1  ZINC000805177769   -0.0800
     31 C31       -13.5643   -3.8091   57.1411 C.3     1  ZINC000805177769   -0.1200
     32 C32       -12.2082   -2.8831   55.2522 C.ar    1  ZINC000805177769   -0.1200
     33 H33       -11.5583   -1.7959   52.5232 H       1  ZINC000805177769    0.0700
     34 H34        -9.9626   -1.4488   53.2315 H       1  ZINC000805177769    0.0700
     35 H35       -10.5785   -3.1186   53.2006 H       1  ZINC000805177769    0.0700
     36 H36       -10.8335    0.1672   54.8232 H       1  ZINC000805177769    0.1200
     37 H37       -11.8849    0.5143   57.0228 H       1  ZINC000805177769    0.1200
     38 H38       -13.5763   -0.2018   58.5905 H       1  ZINC000805177769    0.0800
     39 H39       -14.2292   -1.8568   58.5396 H       1  ZINC000805177769    0.0900
     40 H40       -13.8074   -1.4682   61.1449 H       1  ZINC000805177769    0.0600
     41 H41       -13.7104   -3.0998   60.4401 H       1  ZINC000805177769    0.0700
     42 H42       -12.4379   -2.5317   61.5475 H       1  ZINC000805177769    0.0600
     43 H43       -12.0261    0.2980   60.2929 H       1  ZINC000805177769    0.4100
     44 H44        -8.5000    3.3044   60.2130 H       1  ZINC000805177769    0.0900
     45 H45        -7.1132    2.2443   60.5896 H       1  ZINC000805177769    0.0900
     46 H46        -7.7546    3.7094   58.0363 H       1  ZINC000805177769    0.0900
     47 H47        -6.1601    3.2358   58.7089 H       1  ZINC000805177769    0.0900
     48 H48        -9.0540    2.4640   55.4189 H       1  ZINC000805177769    0.0600
     49 H49        -8.0615    1.3831   54.4116 H       1  ZINC000805177769    0.0800
     50 H50        -8.8985    0.7431   55.8463 H       1  ZINC000805177769    0.0800
     51 H51        -6.8986    4.8218   55.8811 H       1  ZINC000805177769    0.0600
     52 H52        -7.1468    5.9629   54.5377 H       1  ZINC000805177769    0.0700
     53 H53        -8.1351    4.4866   54.6454 H       1  ZINC000805177769    0.0900
     54 H54        -3.9838    4.2136   53.6467 H       1  ZINC000805177769    0.0700
     55 H55        -4.7225    5.8035   53.9545 H       1  ZINC000805177769    0.0800
     56 H56        -4.4744    4.6624   55.2979 H       1  ZINC000805177769    0.0700
     57 H57        -7.4466    3.8566   52.3278 H       1  ZINC000805177769    0.0900
     58 H58        -6.4581    5.3329   52.2200 H       1  ZINC000805177769    0.0700
     59 H59        -5.7195    3.7430   51.9123 H       1  ZINC000805177769    0.0600
     60 H60        -8.5598   -0.0809   57.9606 H       1  ZINC000805177769    0.0900
     61 H61        -9.3896    1.4542   57.5611 H       1  ZINC000805177769    0.0800
     62 H62       -14.6097   -3.7574   56.8368 H       1  ZINC000805177769    0.0700
     63 H63       -13.1433   -4.7664   56.8338 H       1  ZINC000805177769    0.0700
     64 H64       -13.4961   -3.7133   58.2247 H       1  ZINC000805177769    0.0700
     65 H65       -12.2983   -3.8376   54.7552 H       1  ZINC000805177769    0.1200
@<TRIPOS>BOND
     1     1     2    1
     2     1    33    1
     3     1    34    1
     4     1    35    1
     5     2    32   ar
     6     2     3   ar
     7     3     4   ar
     8     3    36    1
     9     4     5   ar
    10     4    37    1
    11     5     6    1
    12     5    30   ar
    13     6     7    1
    14     6    38    1
    15     6    39    1
    16     7     8    1
    17     7     9    1
    18     7    10    1
    19     9    40    1
    20     9    41    1
    21     9    42    1
    22    10    11   am
    23    10    43    1
    24    11    12    2
    25    11    13    1
    26    13    14    2
    27    13    15   am
    28    15    29    1
    29    15    16    1
    30    16    17    1
    31    16    44    1
    32    16    45    1
    33    17    18    1
    34    17    46    1
    35    17    47    1
    36    18    19    1
    37    18    20    1
    38    18    29    1
    39    20    21    1
    40    20    22   am
    41    21    48    1
    42    21    49    1
    43    21    50    1
    44    22    23    2
    45    22    24    1
    46    24    25    1
    47    25    26    1
    48    25    27    1
    49    25    28    1
    50    26    51    1
    51    26    52    1
    52    26    53    1
    53    27    54    1
    54    27    55    1
    55    27    56    1
    56    28    57    1
    57    28    58    1
    58    28    59    1
    59    29    60    1
    60    29    61    1
    61    30    31    1
    62    30    32   ar
    63    31    62    1
    64    31    63    1
    65    31    64    1
    66    32    65    1
@<TRIPOS>SUBSTRUCTURE
     1 ZINC000805177769        1 TEMP              0 ****  ****    0 ROOT


##########                                Name:    ZINC000979274057
##########                DOCK_Rotatable_Bonds:                   6
##########                         Heavy_Atoms:                  24
##########                    Molecular_Weight:              330.39
##########                DOCK_Rotatable_Bonds:                   6
##########                       Formal_Charge:          0.00999946
##########                     HBond_Acceptors:                   8
##########                        HBond_Donors:                   1
##########                         Heavy_Atoms:                  24
##########                          Grid_Score:          -30.656254
##########                     Grid_vdw_energy:          -25.949614
##########                      Grid_es_energy:           -4.706641
##########           Internal_energy_repulsive:           10.400899

@<TRIPOS>MOLECULE
ZINC000979274057
 46 48 1 0 0
SMALL
USER_CHARGES


@<TRIPOS>ATOM
      1 C1         -0.9412   -0.7619   47.6712 C.3     1  ZINC000979274057   -0.1400
      2 C2         -0.6915    0.6824   47.2328 C.3     1  ZINC000979274057    0.1000
      3 H3         -1.6322    1.2331   47.2433 H       1  ZINC000979274057    0.0600
      4 N4         -0.1336    0.6923   45.8739 N.3     1  ZINC000979274057   -0.6700
      5 C5         -0.5116    1.9184   45.1585 C.3     1  ZINC000979274057    0.1300
      6 C6          0.3265    2.0522   43.9132 C.ar    1  ZINC000979274057    0.3200
      7 N7          0.5341    3.2506   43.4055 N.ar    1  ZINC000979274057   -0.5200
      8 C8          1.2647    3.4069   42.3132 C.ar    1  ZINC000979274057    0.1500
      9 C9          1.8137    2.2896   41.7038 C.ar    1  ZINC000979274057   -0.2300
     10 C10         1.5731    1.0464   42.2672 C.ar    1  ZINC000979274057    0.1500
     11 N11         0.8369    0.9682   43.3640 N.ar    1  ZINC000979274057   -0.5000
     12 C12         0.2973    1.3438   48.1949 C.3     1  ZINC000979274057    0.0800
     13 H13         0.4095    0.7241   49.0845 H       1  ZINC000979274057    0.0700
     14 C14        -0.2272    2.7269   48.5975 C.3     1  ZINC000979274057    0.0800
     15 N15         0.8214    3.4149   49.3671 N.am    1  ZINC000979274057   -0.6000
     16 C16         0.5490    3.9790   50.5604 C.2     1  ZINC000979274057    0.6100
     17 O17         1.4295    4.5430   51.1816 O.2     1  ZINC000979274057   -0.5400
     18 C18        -0.8152    3.9126   51.1125 C.2     1  ZINC000979274057   -0.0600
     19 C19        -1.9315    4.4829   50.5746 C.2     1  ZINC000979274057    0.0400
     20 N20        -2.9636    4.1771   51.3956 N.pl3   1  ZINC000979274057   -0.4600
     21 C21        -4.3605    4.5796   51.2141 C.3     1  ZINC000979274057    0.0700
     22 C22        -2.4717    3.4296   52.4177 C.2     1  ZINC000979274057    0.1900
     23 N23        -1.1914    3.2677   52.2464 N.2     1  ZINC000979274057   -0.4600
     24 C24         2.1764    3.4685   48.7957 C.3     1  ZINC000979274057    0.0500
     25 C25         2.5837    2.0492   48.3835 C.3     1  ZINC000979274057    0.0500
     26 O26         1.5653    1.4893   47.5510 O.3     1  ZINC000979274057   -0.3600
     27 H27        -1.6457   -1.2331   46.9857 H       1  ZINC000979274057    0.0600
     28 H28        -0.0006   -1.3126   47.6606 H       1  ZINC000979274057    0.0700
     29 H29        -1.3552   -0.7693   48.6795 H       1  ZINC000979274057    0.0600
     30 H30         0.8690    0.5799   45.8939 H       1  ZINC000979274057    0.3500
     31 H31        -1.5653    1.8684   44.8837 H       1  ZINC000979274057    0.1000
     32 H32        -0.3449    2.7813   45.8032 H       1  ZINC000979274057    0.0600
     33 H33         1.4307    4.3916   41.9021 H       1  ZINC000979274057    0.1700
     34 H34         2.4140    2.3855   40.8112 H       1  ZINC000979274057    0.1500
     35 H35         1.9844    0.1538   41.8194 H       1  ZINC000979274057    0.1700
     36 H36        -0.4648    3.3038   47.7036 H       1  ZINC000979274057    0.0700
     37 H37        -1.1207    2.6162   49.2119 H       1  ZINC000979274057    0.1000
     38 H38        -1.9823    5.0669   49.6675 H       1  ZINC000979274057    0.1900
     39 H39        -4.8833    3.8234   50.6284 H       1  ZINC000979274057    0.0800
     40 H40        -4.8392    4.6799   52.1882 H       1  ZINC000979274057    0.0900
     41 H41        -4.3983    5.5348   50.6905 H       1  ZINC000979274057    0.0900
     42 H42        -3.0501    3.0307   53.2379 H       1  ZINC000979274057    0.2100
     43 H43         2.1808    4.1201   47.9218 H       1  ZINC000979274057    0.0700
     44 H44         2.8745    3.8489   49.5412 H       1  ZINC000979274057    0.1500
     45 H45         3.5242    2.0856   47.8336 H       1  ZINC000979274057    0.1100
     46 H46         2.7052    1.4324   49.2738 H       1  ZINC000979274057    0.0500
@<TRIPOS>BOND
     1     1     2    1
     2     1    27    1
     3     1    28    1
     4     1    29    1
     5     2     3    1
     6     2     4    1
     7     2    12    1
     8     4     5    1
     9     4    30    1
    10     5     6    1
    11     5    31    1
    12     5    32    1
    13     6    11   ar
    14     6     7   ar
    15     7     8   ar
    16     8     9   ar
    17     8    33    1
    18     9    10   ar
    19     9    34    1
    20    10    11   ar
    21    10    35    1
    22    12    13    1
    23    12    26    1
    24    12    14    1
    25    14    15    1
    26    14    36    1
    27    14    37    1
    28    15    16   am
    29    15    24    1
    30    16    17    2
    31    16    18    1
    32    18    23    1
    33    18    19    2
    34    19    20    1
    35    19    38    1
    36    20    21    1
    37    20    22    1
    38    21    39    1
    39    21    40    1
    40    21    41    1
    41    22    23    2
    42    22    42    1
    43    24    25    1
    44    24    43    1
    45    24    44    1
    46    25    26    1
    47    25    45    1
    48    25    46    1
@<TRIPOS>SUBSTRUCTURE
     1 ZINC000979274057        1 TEMP              0 ****  ****    0 ROOT


##########                                Name:    ZINC001312809190
##########                DOCK_Rotatable_Bonds:                   6
##########                         Heavy_Atoms:                  29
##########                    Molecular_Weight:             395.501
##########                DOCK_Rotatable_Bonds:                   6
##########                       Formal_Charge:           0.0199995
##########                     HBond_Acceptors:                   6
##########                        HBond_Donors:                   1
##########                         Heavy_Atoms:                  29
##########                          Grid_Score:          -30.653845
##########                     Grid_vdw_energy:          -29.009115
##########                      Grid_es_energy:           -1.644729
##########           Internal_energy_repulsive:           23.916941

@<TRIPOS>MOLECULE
ZINC001312809190
 58 61 1 0 0
SMALL
USER_CHARGES


@<TRIPOS>ATOM
      1 C1         -8.9741    1.5645   53.2171 C.3     1  ZINC001312809190    0.0300
      2 O2         -9.3887    2.8846   52.8601 O.3     1  ZINC001312809190   -0.3200
      3 C3         -8.4416    3.8588   52.8933 C.ar    1  ZINC001312809190    0.1300
      4 C4         -8.7397    5.1334   52.4346 C.ar    1  ZINC001312809190   -0.2100
      5 C5         -7.7752    6.1221   52.4699 C.ar    1  ZINC001312809190   -0.0800
      6 C6         -6.5139    5.8418   52.9613 C.ar    1  ZINC001312809190   -0.1300
      7 C7         -6.2141    4.5716   53.4188 C.ar    1  ZINC001312809190   -0.0500
      8 C8         -4.8380    4.2693   53.9535 C.3     1  ZINC001312809190    0.1200
      9 H9         -4.7750    3.2140   54.2188 H       1  ZINC001312809190    0.0500
     10 C10        -4.5740    5.1239   55.1948 C.3     1  ZINC001312809190   -0.1400
     11 N11        -3.8347    4.5764   52.9252 N.3     1  ZINC001312809190   -0.5300
     12 C12        -4.2412    4.0444   51.6177 C.3     1  ZINC001312809190    0.0300
     13 C13        -3.2660    4.5378   50.5436 C.3     1  ZINC001312809190    0.1400
     14 N14        -1.8986    4.1900   50.9587 N.am    1  ZINC001312809190   -0.6300
     15 C15        -1.0657    3.5403   50.1217 C.2     1  ZINC001312809190    0.7100
     16 O16         0.0616    3.2606   50.4816 O.2     1  ZINC001312809190   -0.5800
     17 N17        -1.4823    3.2006   48.8857 N.am    1  ZINC001312809190   -0.7300
     18 C18        -0.5769    2.4945   47.9760 C.3     1  ZINC001312809190    0.1800
     19 H19         0.3384    2.2012   48.4902 H       1  ZINC001312809190    0.1200
     20 C20        -1.2605    1.2905   47.3573 C.ar    1  ZINC001312809190   -0.1900
     21 C21        -2.0296    0.2847   47.8984 C.ar    1  ZINC001312809190   -0.0500
     22 C22        -2.5450   -0.7069   47.0821 C.ar    1  ZINC001312809190   -0.1500
     23 C23        -2.2847   -0.6828   45.7247 C.ar    1  ZINC001312809190   -0.0800
     24 C24        -1.5113    0.3222   45.1810 C.ar    1  ZINC001312809190   -0.1400
     25 C25        -0.9861    1.3217   45.9958 C.ar    1  ZINC001312809190    0.1100
     26 O26        -0.1941    2.3820   45.6768 O.3     1  ZINC001312809190   -0.2900
     27 C27        -0.2595    3.3575   46.7318 C.3     1  ZINC001312809190    0.0800
     28 H28        -1.0590    4.0746   46.5455 H       1  ZINC001312809190    0.0900
     29 C29         1.0826    4.0744   46.8911 C.3     1  ZINC001312809190   -0.1500
     30 C30        -1.4640    4.5704   52.3114 C.3     1  ZINC001312809190    0.1200
     31 C31        -2.5101    4.0757   53.3159 C.3     1  ZINC001312809190    0.0400
     32 C32        -7.1767    3.5814   53.3914 C.ar    1  ZINC001312809190   -0.1500
     33 H33        -9.8243    0.8858   53.1489 H       1  ZINC001312809190    0.1000
     34 H34        -8.1895    1.2335   52.5366 H       1  ZINC001312809190    0.0600
     35 H35        -8.5923    1.5671   54.2380 H       1  ZINC001312809190    0.0600
     36 H36        -9.7247    5.3528   52.0499 H       1  ZINC001312809190    0.1300
     37 H37        -8.0068    7.1147   52.1129 H       1  ZINC001312809190    0.1300
     38 H38        -5.7613    6.6158   52.9878 H       1  ZINC001312809190    0.1300
     39 H39        -4.6370    6.1793   54.9295 H       1  ZINC001312809190    0.0700
     40 H40        -5.3184    4.8961   55.9578 H       1  ZINC001312809190    0.0600
     41 H41        -3.5786    4.9052   55.5815 H       1  ZINC001312809190    0.0600
     42 H42        -4.2278    2.9548   51.6482 H       1  ZINC001312809190    0.0400
     43 H43        -5.2477    4.3896   51.3815 H       1  ZINC001312809190    0.1000
     44 H44        -3.4939    4.0558   49.5929 H       1  ZINC001312809190    0.1000
     45 H45        -3.3531    5.6193   50.4390 H       1  ZINC001312809190    0.0700
     46 H46        -2.3816    3.4236   48.5987 H       1  ZINC001312809190    0.4000
     47 H47        -2.2302    0.2694   48.9595 H       1  ZINC001312809190    0.1200
     48 H48        -3.1483   -1.4970   47.5042 H       1  ZINC001312809190    0.1300
     49 H49        -2.6884   -1.4548   45.0865 H       1  ZINC001312809190    0.1300
     50 H50        -1.3123    0.3334   44.1195 H       1  ZINC001312809190    0.1300
     51 H51         1.3249    4.6014   45.9682 H       1  ZINC001312809190    0.0800
     52 H52         1.0176    4.7893   47.7113 H       1  ZINC001312809190    0.0800
     53 H53         1.8618    3.3434   47.1071 H       1  ZINC001312809190    0.0700
     54 H54        -0.5005    4.1099   52.5294 H       1  ZINC001312809190    0.0800
     55 H55        -1.3779    5.6550   52.3768 H       1  ZINC001312809190    0.0800
     56 H56        -2.2612    4.4437   54.3112 H       1  ZINC001312809190    0.0900
     57 H57        -2.5209    2.9857   53.3228 H       1  ZINC001312809190    0.0400
     58 H58        -6.9421    2.5897   53.7491 H       1  ZINC001312809190    0.1300
@<TRIPOS>BOND
     1     1     2    1
     2     1    33    1
     3     1    34    1
     4     1    35    1
     5     2     3    1
     6     3    32   ar
     7     3     4   ar
     8     4     5   ar
     9     4    36    1
    10     5     6   ar
    11     5    37    1
    12     6     7   ar
    13     6    38    1
    14     7     8    1
    15     7    32   ar
    16     8     9    1
    17     8    10    1
    18     8    11    1
    19    10    39    1
    20    10    40    1
    21    10    41    1
    22    11    31    1
    23    11    12    1
    24    12    13    1
    25    12    42    1
    26    12    43    1
    27    13    14    1
    28    13    44    1
    29    13    45    1
    30    14    15   am
    31    14    30    1
    32    15    16    2
    33    15    17   am
    34    17    18    1
    35    17    46    1
    36    18    19    1
    37    18    27    1
    38    18    20    1
    39    20    25   ar
    40    20    21   ar
    41    21    22   ar
    42    21    47    1
    43    22    23   ar
    44    22    48    1
    45    23    24   ar
    46    23    49    1
    47    24    25   ar
    48    24    50    1
    49    25    26    1
    50    26    27    1
    51    27    28    1
    52    27    29    1
    53    29    51    1
    54    29    52    1
    55    29    53    1
    56    30    31    1
    57    30    54    1
    58    30    55    1
    59    31    56    1
    60    31    57    1
    61    32    58    1
@<TRIPOS>SUBSTRUCTURE
     1 ZINC001312809190        1 TEMP              0 ****  ****    0 ROOT


##########                                Name:    ZINC000655235556
##########                DOCK_Rotatable_Bonds:                   6
##########                         Heavy_Atoms:                  23
##########                    Molecular_Weight:             336.778
##########                DOCK_Rotatable_Bonds:                   6
##########                       Formal_Charge:         -0.00999996
##########                     HBond_Acceptors:                   8
##########                        HBond_Donors:                   2
##########                         Heavy_Atoms:                  23
##########                          Grid_Score:          -30.631727
##########                     Grid_vdw_energy:          -30.714706
##########                      Grid_es_energy:            0.082980
##########           Internal_energy_repulsive:            5.321629

@<TRIPOS>MOLECULE
ZINC000655235556
 40 42 1 0 0
SMALL
USER_CHARGES


@<TRIPOS>ATOM
      1 C1        -14.1822   -3.6359   58.4080 C.3     1  ZINC000655235556    0.0200
      2 O2        -12.8498   -3.9886   58.0306 O.3     1  ZINC000655235556   -0.2700
      3 C3        -12.1843   -3.1163   57.2328 C.ar    1  ZINC000655235556    0.2000
      4 C4        -12.1016   -3.3449   55.8682 C.ar    1  ZINC000655235556   -0.2100
      5 C5        -11.4235   -2.4547   55.0565 C.ar    1  ZINC000655235556    0.0300
      6 Cl6       -11.3240   -2.7475   53.3483 Cl      1  ZINC000655235556   -0.0500
      7 C7        -10.8228   -1.3290   55.5993 C.ar    1  ZINC000655235556   -0.1600
      8 C8        -10.8957   -1.0873   56.9537 C.ar    1  ZINC000655235556   -0.0300
      9 C9        -11.5822   -1.9765   57.7843 C.ar    1  ZINC000655235556   -0.1700
     10 C10       -11.6642   -1.7230   59.2348 C.2     1  ZINC000655235556    0.5700
     11 O11       -12.3663   -0.8239   59.6561 O.2     1  ZINC000655235556   -0.5100
     12 N12       -10.9609   -2.4876   60.0933 N.am    1  ZINC000655235556   -0.7300
     13 C13       -11.0437   -2.2369   61.5344 C.3     1  ZINC000655235556    0.2100
     14 C14        -9.8359   -1.4525   61.9780 C.2     1  ZINC000655235556    0.2600
     15 N15        -9.7820   -0.6376   63.0002 N.2     1  ZINC000655235556   -0.5100
     16 C16        -8.5597   -0.1164   63.0987 C.2     1  ZINC000655235556    0.2200
     17 C17        -8.1082    0.8646   64.1499 C.3     1  ZINC000655235556    0.1700
     18 H18        -7.3166    1.4976   63.7490 H       1  ZINC000655235556    0.1100
     19 C19        -7.5925    0.1031   65.3898 C.3     1  ZINC000655235556   -0.1400
     20 C20        -8.1319    0.9724   66.5583 C.3     1  ZINC000655235556   -0.1500
     21 C21        -9.4764    1.4624   65.9641 C.3     1  ZINC000655235556    0.0500
     22 O22        -9.2141    1.6742   64.5658 O.3     1  ZINC000655235556   -0.3700
     23 N23        -7.8156   -0.5945   62.1362 N.2     1  ZINC000655235556   -0.2800
     24 N24        -8.6243   -1.4723   61.3960 N.pl3   1  ZINC000655235556   -0.4700
     25 H25       -14.1676   -2.6925   58.9537 H       1  ZINC000655235556    0.0600
     26 H26       -14.7968   -3.5291   57.5140 H       1  ZINC000655235556    0.0600
     27 H27       -14.5986   -4.4172   59.0439 H       1  ZINC000655235556    0.1100
     28 H28       -12.5672   -4.2197   55.4387 H       1  ZINC000655235556    0.1500
     29 H29       -10.2951   -0.6390   54.9576 H       1  ZINC000655235556    0.1400
     30 H30       -10.4261   -0.2094   57.3722 H       1  ZINC000655235556    0.1400
     31 H31       -10.3999   -3.2040   59.7571 H       1  ZINC000655235556    0.4000
     32 H32       -11.9471   -1.6674   61.7528 H       1  ZINC000655235556    0.1000
     33 H33       -11.0756   -3.1872   62.0673 H       1  ZINC000655235556    0.1100
     34 H34        -8.0109   -0.9026   65.4292 H       1  ZINC000655235556    0.0800
     35 H35        -6.5030    0.0718   65.4004 H       1  ZINC000655235556    0.0900
     36 H36        -8.2937    0.3711   67.4530 H       1  ZINC000655235556    0.0900
     37 H37        -7.4654    1.8096   66.7653 H       1  ZINC000655235556    0.0800
     38 H38       -10.2469    0.7025   66.0943 H       1  ZINC000655235556    0.0600
     39 H39        -9.7809    2.3961   66.4368 H       1  ZINC000655235556    0.0900
     40 H40        -8.3624   -1.9858   60.6159 H       1  ZINC000655235556    0.4400
@<TRIPOS>BOND
     1     1     2    1
     2     1    25    1
     3     1    26    1
     4     1    27    1
     5     2     3    1
     6     3     9   ar
     7     3     4   ar
     8     4     5   ar
     9     4    28    1
    10     5     6    1
    11     5     7   ar
    12     7     8   ar
    13     7    29    1
    14     8     9   ar
    15     8    30    1
    16     9    10    1
    17    10    11    2
    18    10    12   am
    19    12    13    1
    20    12    31    1
    21    13    14    1
    22    13    32    1
    23    13    33    1
    24    14    24    1
    25    14    15    2
    26    15    16    1
    27    16    17    1
    28    16    23    2
    29    17    18    1
    30    17    22    1
    31    17    19    1
    32    19    20    1
    33    19    34    1
    34    19    35    1
    35    20    21    1
    36    20    36    1
    37    20    37    1
    38    21    22    1
    39    21    38    1
    40    21    39    1
    41    23    24    1
    42    24    40    1
@<TRIPOS>SUBSTRUCTURE
     1 ZINC000655235556        1 TEMP              0 ****  ****    0 ROOT


##########                                Name:    ZINC000523878927
##########                DOCK_Rotatable_Bonds:                   8
##########                         Heavy_Atoms:                  27
##########                    Molecular_Weight:             376.474
##########                DOCK_Rotatable_Bonds:                   8
##########                       Formal_Charge:          0.00999957
##########                     HBond_Acceptors:                   7
##########                        HBond_Donors:                   3
##########                         Heavy_Atoms:                  27
##########                          Grid_Score:          -30.629581
##########                     Grid_vdw_energy:          -29.588541
##########                      Grid_es_energy:           -1.041041
##########           Internal_energy_repulsive:           12.698625

@<TRIPOS>MOLECULE
ZINC000523878927
 56 58 1 0 0
SMALL
USER_CHARGES


@<TRIPOS>ATOM
      1 C1         -7.0151    4.5289   57.8542 C.3     1  ZINC000523878927   -0.1500
      2 C2         -6.6641    4.6915   56.3739 C.3     1  ZINC000523878927   -0.0900
      3 H3         -7.0022    5.6673   56.0254 H       1  ZINC000523878927    0.0700
      4 C4         -7.3541    3.5930   55.5626 C.3     1  ZINC000523878927   -0.1200
      5 C5         -6.8795    2.2233   56.0518 C.3     1  ZINC000523878927   -0.1200
      6 C6         -5.3639    2.1144   55.8721 C.3     1  ZINC000523878927   -0.1100
      7 C7         -4.6741    3.2129   56.6834 C.3     1  ZINC000523878927   -0.1000
      8 H8         -4.9240    3.0971   57.7379 H       1  ZINC000523878927    0.0800
      9 C9         -3.1585    3.1042   56.5035 C.3     1  ZINC000523878927    0.1400
     10 N10        -2.8191    3.2988   55.0917 N.am    1  ZINC000523878927   -0.7400
     11 C11        -2.4484    4.5167   54.6495 C.2     1  ZINC000523878927    0.7200
     12 O12        -2.3971    5.4543   55.4219 O.2     1  ZINC000523878927   -0.5800
     13 N13        -2.1347    4.6954   53.3510 N.am    1  ZINC000523878927   -0.6400
     14 C14        -1.7152    5.9676   52.7355 C.3     1  ZINC000523878927    0.1000
     15 C15        -0.9043    5.5535   51.4822 C.3     1  ZINC000523878927   -0.1400
     16 C16        -1.6968    4.3118   50.9948 C.3     1  ZINC000523878927    0.1500
     17 H17        -2.5565    4.6135   50.3966 H       1  ZINC000523878927    0.1100
     18 N18        -0.8292    3.4092   50.2338 N.am    1  ZINC000523878927   -0.7300
     19 C19        -1.3702    2.4923   49.4073 C.2     1  ZINC000523878927    0.7100
     20 O20        -2.5782    2.4153   49.2920 O.2     1  ZINC000523878927   -0.5700
     21 N21        -0.5721    1.6609   48.7085 N.am    1  ZINC000523878927   -0.6800
     22 C22        -1.1343    0.7080   47.8496 C.ar    1  ZINC000523878927    0.1500
     23 C23        -1.2556   -0.6126   48.2606 C.ar    1  ZINC000523878927   -0.1200
     24 C24        -1.8106   -1.5507   47.4123 C.ar    1  ZINC000523878927   -0.1300
     25 C25        -2.2456   -1.1749   46.1526 C.ar    1  ZINC000523878927    0.0800
     26 F26        -2.7879   -2.0940   45.3242 F       1  ZINC000523878927   -0.1400
     27 C27        -2.1260    0.1418   45.7411 C.ar    1  ZINC000523878927   -0.1300
     28 C28        -1.5763    1.0839   46.5883 C.ar    1  ZINC000523878927   -0.0900
     29 C29        -2.1481    3.6523   52.3149 C.3     1  ZINC000523878927    0.1200
     30 C30        -5.1486    4.5827   56.1942 C.3     1  ZINC000523878927   -0.1100
     31 H31        -6.5236    5.3115   58.4322 H       1  ZINC000523878927    0.0500
     32 H32        -8.0947    4.6064   57.9823 H       1  ZINC000523878927    0.0500
     33 H33        -6.6770    3.5531   58.2027 H       1  ZINC000523878927    0.0600
     34 H34        -8.4337    3.6705   55.6907 H       1  ZINC000523878927    0.0600
     35 H35        -7.1040    3.7088   54.5079 H       1  ZINC000523878927    0.0600
     36 H36        -7.1295    2.1074   57.1063 H       1  ZINC000523878927    0.0700
     37 H37        -7.3711    1.4407   55.4738 H       1  ZINC000523878927    0.0600
     38 H38        -5.0259    1.1386   56.2206 H       1  ZINC000523878927    0.0600
     39 H39        -5.1140    2.2303   54.8174 H       1  ZINC000523878927    0.0600
     40 H40        -2.6656    3.8682   57.1044 H       1  ZINC000523878927    0.0700
     41 H41        -2.8244    2.1175   56.8248 H       1  ZINC000523878927    0.0700
     42 H42        -2.8612    2.5511   54.4753 H       1  ZINC000523878927    0.3900
     43 H43        -2.5869    6.5548   52.4464 H       1  ZINC000523878927    0.0800
     44 H44        -1.0872    6.5332   53.4239 H       1  ZINC000523878927    0.0800
     45 H45        -0.9153    6.3434   50.7312 H       1  ZINC000523878927    0.1000
     46 H46         0.1176    5.2847   51.7493 H       1  ZINC000523878927    0.0800
     47 H47         0.1344    3.4715   50.3249 H       1  ZINC000523878927    0.4000
     48 H48         0.3915    1.7225   48.8005 H       1  ZINC000523878927    0.4100
     49 H49        -0.9157   -0.9062   49.2429 H       1  ZINC000523878927    0.1400
     50 H50        -1.9051   -2.5781   47.7316 H       1  ZINC000523878927    0.1400
     51 H51        -2.4659    0.4329   44.7581 H       1  ZINC000523878927    0.1400
     52 H52        -1.4835    2.1109   46.2671 H       1  ZINC000523878927    0.1500
     53 H53        -1.4612    2.8491   52.5817 H       1  ZINC000523878927    0.0700
     54 H54        -3.1583    3.2580   52.2059 H       1  ZINC000523878927    0.0800
     55 H55        -4.8986    4.6985   55.1395 H       1  ZINC000523878927    0.0700
     56 H56        -4.6570    5.3653   56.7721 H       1  ZINC000523878927    0.0700
@<TRIPOS>BOND
     1     1     2    1
     2     1    31    1
     3     1    32    1
     4     1    33    1
     5     2     3    1
     6     2    30    1
     7     2     4    1
     8     4     5    1
     9     4    34    1
    10     4    35    1
    11     5     6    1
    12     5    36    1
    13     5    37    1
    14     6     7    1
    15     6    38    1
    16     6    39    1
    17     7     8    1
    18     7     9    1
    19     7    30    1
    20     9    10    1
    21     9    40    1
    22     9    41    1
    23    10    11   am
    24    10    42    1
    25    11    12    2
    26    11    13   am
    27    13    29    1
    28    13    14    1
    29    14    15    1
    30    14    43    1
    31    14    44    1
    32    15    16    1
    33    15    45    1
    34    15    46    1
    35    16    17    1
    36    16    18    1
    37    16    29    1
    38    18    19   am
    39    18    47    1
    40    19    20    2
    41    19    21   am
    42    21    22    1
    43    21    48    1
    44    22    28   ar
    45    22    23   ar
    46    23    24   ar
    47    23    49    1
    48    24    25   ar
    49    24    50    1
    50    25    26    1
    51    25    27   ar
    52    27    28   ar
    53    27    51    1
    54    28    52    1
    55    29    53    1
    56    29    54    1
    57    30    55    1
    58    30    56    1
@<TRIPOS>SUBSTRUCTURE
     1 ZINC000523878927        1 TEMP              0 ****  ****    0 ROOT


##########                                Name:    ZINC000369046711
##########                DOCK_Rotatable_Bonds:                   8
##########                         Heavy_Atoms:                  26
##########                    Molecular_Weight:             367.467
##########                DOCK_Rotatable_Bonds:                   8
##########                       Formal_Charge:        -7.63685e-07
##########                     HBond_Acceptors:                   8
##########                        HBond_Donors:                   1
##########                         Heavy_Atoms:                  26
##########                          Grid_Score:          -30.628662
##########                     Grid_vdw_energy:          -29.683372
##########                      Grid_es_energy:           -0.945290
##########           Internal_energy_repulsive:           15.233644

@<TRIPOS>MOLECULE
ZINC000369046711
 56 58 1 0 0
SMALL
USER_CHARGES


@<TRIPOS>ATOM
      1 C1        -16.7467   -0.0265   48.1074 C.3     1  ZINC000369046711   -0.1800
      2 C2        -15.2192   -0.0544   48.1904 C.3     1  ZINC000369046711    0.1400
      3 C3        -14.7693   -1.3439   48.8800 C.3     1  ZINC000369046711   -0.1800
      4 C4        -14.6307    0.0014   46.7792 C.3     1  ZINC000369046711   -0.1400
      5 O5        -14.7550    1.0901   48.9540 O.3     1  ZINC000369046711   -0.3700
      6 C6        -14.6233    0.9251   50.2837 C.2     1  ZINC000369046711    0.6500
      7 O7        -15.6108    0.8109   50.9825 O.2     1  ZINC000369046711   -0.5700
      8 N8        -13.3962    0.8866   50.8396 N.am    1  ZINC000369046711   -0.7100
      9 C9        -13.2528    0.7053   52.2863 C.3     1  ZINC000369046711    0.1800
     10 H10       -14.2137    0.8943   52.7648 H       1  ZINC000369046711    0.0900
     11 C11       -12.2272    1.7074   52.8149 C.3     1  ZINC000369046711   -0.1300
     12 C12       -10.8824    1.4137   52.1396 C.3     1  ZINC000369046711   -0.1200
     13 C13       -10.4197    0.0249   52.5704 C.3     1  ZINC000369046711   -0.1200
     14 C14       -11.4055   -1.0504   52.1086 C.3     1  ZINC000369046711   -0.1000
     15 H15       -11.3378   -1.2344   51.0365 H       1  ZINC000369046711    0.0900
     16 C16       -11.0946   -2.3207   52.9466 C.3     1  ZINC000369046711    0.0400
     17 N17       -11.9579   -2.2686   54.1426 N.3     1  ZINC000369046711   -0.5200
     18 C18       -11.1547   -2.2806   55.3726 C.3     1  ZINC000369046711    0.1200
     19 C19       -11.9452   -2.9242   56.4825 C.2     1  ZINC000369046711    0.2900
     20 N20       -12.7281   -3.9657   56.3641 N.2     1  ZINC000369046711   -0.5400
     21 C21       -13.2667   -4.2629   57.5460 C.2     1  ZINC000369046711    0.2000
     22 N22       -12.8320   -3.4108   58.4368 N.2     1  ZINC000369046711   -0.3200
     23 N23       -11.9645   -2.5319   57.7681 N.pl3   1  ZINC000369046711   -0.3700
     24 C24       -11.2334   -1.4053   58.3533 C.3     1  ZINC000369046711    0.1000
     25 C25       -10.8364   -1.7464   59.7910 C.3     1  ZINC000369046711    0.0500
     26 F26       -10.1099   -0.6838   60.3388 F       1  ZINC000369046711   -0.2000
     27 C27       -12.7956   -1.0480   54.0670 C.3     1  ZINC000369046711    0.0500
     28 C28       -12.8364   -0.7166   52.5645 C.3     1  ZINC000369046711   -0.1000
     29 H29       -13.5356   -1.3893   52.0679 H       1  ZINC000369046711    0.0900
     30 H30       -17.1660   -0.0662   49.1127 H       1  ZINC000369046711    0.0900
     31 H31       -17.0672    0.8921   47.6161 H       1  ZINC000369046711    0.0600
     32 H32       -17.0951   -0.8856   47.5342 H       1  ZINC000369046711    0.0700
     33 H33       -15.1177   -2.2030   48.3068 H       1  ZINC000369046711    0.0700
     34 H34       -13.6811   -1.3637   48.9391 H       1  ZINC000369046711    0.0600
     35 H35       -15.1886   -1.3836   49.8853 H       1  ZINC000369046711    0.0900
     36 H36       -14.9512    0.9202   46.2879 H       1  ZINC000369046711    0.0700
     37 H37       -13.5424   -0.0184   46.8384 H       1  ZINC000369046711    0.0700
     38 H38       -14.9791   -0.8577   46.2061 H       1  ZINC000369046711    0.0800
     39 H39       -12.6079    0.9790   50.2820 H       1  ZINC000369046711    0.4000
     40 H40       -12.5460    2.7217   52.5748 H       1  ZINC000369046711    0.0700
     41 H41       -12.1285    1.5980   53.8949 H       1  ZINC000369046711    0.0800
     42 H42       -11.0018    1.4412   51.0565 H       1  ZINC000369046711    0.0600
     43 H43       -10.1471    2.1573   52.4473 H       1  ZINC000369046711    0.0700
     44 H44        -9.4407   -0.1770   52.1358 H       1  ZINC000369046711    0.0700
     45 H45       -10.3410   -0.0049   53.6571 H       1  ZINC000369046711    0.0600
     46 H46       -11.3185   -3.2147   52.3646 H       1  ZINC000369046711    0.0800
     47 H47       -10.0459   -2.3229   53.2442 H       1  ZINC000369046711    0.0800
     48 H48       -10.2390   -2.8471   55.2030 H       1  ZINC000369046711    0.0800
     49 H49       -10.9027   -1.2577   55.6519 H       1  ZINC000369046711    0.1000
     50 H50       -13.9518   -5.0757   57.7369 H       1  ZINC000369046711    0.2200
     51 H51       -10.3366   -1.2095   57.7655 H       1  ZINC000369046711    0.1200
     52 H52       -11.8690   -0.5198   58.3522 H       1  ZINC000369046711    0.1100
     53 H53       -11.7342   -1.9172   60.3850 H       1  ZINC000369046711    0.0900
     54 H54       -10.2219   -2.6467   59.7943 H       1  ZINC000369046711    0.0800
     55 H55       -13.7989   -1.2495   54.4424 H       1  ZINC000369046711    0.0900
     56 H56       -12.3344   -0.2330   54.6249 H       1  ZINC000369046711    0.0600
@<TRIPOS>BOND
     1     1     2    1
     2     1    30    1
     3     1    31    1
     4     1    32    1
     5     2     3    1
     6     2     4    1
     7     2     5    1
     8     3    33    1
     9     3    34    1
    10     3    35    1
    11     4    36    1
    12     4    37    1
    13     4    38    1
    14     5     6    1
    15     6     7    2
    16     6     8   am
    17     8     9    1
    18     8    39    1
    19     9    10    1
    20     9    28    1
    21     9    11    1
    22    11    12    1
    23    11    40    1
    24    11    41    1
    25    12    13    1
    26    12    42    1
    27    12    43    1
    28    13    14    1
    29    13    44    1
    30    13    45    1
    31    14    15    1
    32    14    28    1
    33    14    16    1
    34    16    17    1
    35    16    46    1
    36    16    47    1
    37    17    18    1
    38    17    27    1
    39    18    19    1
    40    18    48    1
    41    18    49    1
    42    19    23    1
    43    19    20    2
    44    20    21    1
    45    21    22    2
    46    21    50    1
    47    22    23    1
    48    23    24    1
    49    24    25    1
    50    24    51    1
    51    24    52    1
    52    25    26    1
    53    25    53    1
    54    25    54    1
    55    27    28    1
    56    27    55    1
    57    27    56    1
    58    28    29    1
@<TRIPOS>SUBSTRUCTURE
     1 ZINC000369046711        1 TEMP              0 ****  ****    0 ROOT


##########                                Name:    ZINC001082278299
##########                DOCK_Rotatable_Bonds:                   9
##########                         Heavy_Atoms:                  25
##########                    Molecular_Weight:              346.47
##########                DOCK_Rotatable_Bonds:                   9
##########                       Formal_Charge:           0.0200001
##########                     HBond_Acceptors:                   5
##########                        HBond_Donors:                   1
##########                         Heavy_Atoms:                  25
##########                          Grid_Score:          -30.614096
##########                     Grid_vdw_energy:          -28.471615
##########                      Grid_es_energy:           -2.142481
##########           Internal_energy_repulsive:           90.018166

@<TRIPOS>MOLECULE
ZINC001082278299
 55 57 1 0 0
SMALL
USER_CHARGES


@<TRIPOS>ATOM
      1 C1         -1.8747    2.7019   55.7393 C.3     1  ZINC001082278299   -0.1300
      2 C2         -2.4200    4.1028   55.6348 C.2     1  ZINC001082278299    0.0000
      3 C3         -2.4347    4.7248   54.4592 C.2     1  ZINC001082278299   -0.2300
      4 C4         -1.9187    4.0453   53.2610 C.2     1  ZINC001082278299    0.5400
      5 O5         -0.7858    3.6033   53.2531 O.2     1  ZINC001082278299   -0.5300
      6 N6         -2.7015    3.9124   52.1719 N.am    1  ZINC001082278299   -0.7400
      7 C7         -2.1869    3.2372   50.9780 C.3     1  ZINC001082278299    0.1300
      8 C8         -1.1883    4.1517   50.2657 C.3     1  ZINC001082278299    0.1400
      9 H9         -0.3121    4.2983   50.8973 H       1  ZINC001082278299    0.0800
     10 C10        -1.8460    5.5049   49.9778 C.3     1  ZINC001082278299   -0.1300
     11 C11        -0.8924    6.3641   49.1442 C.3     1  ZINC001082278299   -0.1200
     12 C12        -0.6121    5.6697   47.8096 C.3     1  ZINC001082278299   -0.1400
     13 C13         0.0597    4.3184   48.0729 C.3     1  ZINC001082278299    0.1100
     14 N14        -0.7814    3.5402   48.9931 N.am    1  ZINC001082278299   -0.6100
     15 C15        -1.1760    2.2918   48.6735 C.2     1  ZINC001082278299    0.5100
     16 O16        -1.8700    1.6599   49.4415 O.2     1  ZINC001082278299   -0.5100
     17 C17        -0.7549    1.6811   47.3617 C.3     1  ZINC001082278299   -0.1100
     18 C18        -1.0997    0.2141   47.3569 C.2     1  ZINC001082278299   -0.0900
     19 C19        -1.9851   -0.2171   46.5084 C.2     1  ZINC001082278299   -0.1800
     20 C20        -2.4049   -1.6574   46.4294 C.3     1  ZINC001082278299    0.0900
     21 O21        -1.4663   -2.4820   47.1232 O.3     1  ZINC001082278299   -0.3800
     22 C22        -1.1785   -2.0126   48.4462 C.3     1  ZINC001082278299    0.0600
     23 C23        -0.4020   -0.6960   48.3296 C.3     1  ZINC001082278299   -0.1100
     24 C24        -2.9487    4.7991   56.8622 C.3     1  ZINC001082278299   -0.1200
     25 C25        -2.6995    6.3039   56.9833 C.3     1  ZINC001082278299   -0.1900
     26 C26        -4.1046    5.7836   56.6733 C.3     1  ZINC001082278299   -0.1500
     27 H27        -0.8066    2.7428   55.9531 H       1  ZINC001082278299    0.0800
     28 H28        -2.3860    2.1719   56.5428 H       1  ZINC001082278299    0.0800
     29 H29        -2.0369    2.1776   54.7974 H       1  ZINC001082278299    0.0700
     30 H30        -2.8256    5.7288   54.3845 H       1  ZINC001082278299    0.1300
     31 H31        -3.6055    4.2640   52.1787 H       1  ZINC001082278299    0.3900
     32 H32        -1.6887    2.3127   51.2697 H       1  ZINC001082278299    0.0900
     33 H33        -3.0134    3.0081   50.3055 H       1  ZINC001082278299    0.0800
     34 H34        -2.7724    5.3489   49.4251 H       1  ZINC001082278299    0.0700
     35 H35        -2.0637    6.0111   50.9183 H       1  ZINC001082278299    0.0800
     36 H36        -1.3481    7.3368   48.9588 H       1  ZINC001082278299    0.0700
     37 H37         0.0432    6.4991   49.6869 H       1  ZINC001082278299    0.0700
     38 H38        -1.5501    5.5122   47.2773 H       1  ZINC001082278299    0.0700
     39 H39         0.0485    6.2931   47.2069 H       1  ZINC001082278299    0.0800
     40 H40         0.1717    3.7768   47.1336 H       1  ZINC001082278299    0.0900
     41 H41         1.0391    4.4788   48.5235 H       1  ZINC001082278299    0.0700
     42 H42        -1.2765    2.1797   46.5448 H       1  ZINC001082278299    0.1000
     43 H43         0.3208    1.8020   47.2334 H       1  ZINC001082278299    0.1000
     44 H44        -2.4390    0.4910   45.8310 H       1  ZINC001082278299    0.1100
     45 H45        -3.3900   -1.7719   46.8817 H       1  ZINC001082278299    0.0600
     46 H46        -2.4515   -1.9634   45.3844 H       1  ZINC001082278299    0.1000
     47 H47        -2.1099   -1.8472   48.9878 H       1  ZINC001082278299    0.0600
     48 H48        -0.5726   -2.7494   48.9734 H       1  ZINC001082278299    0.1000
     49 H49         0.6105   -0.9014   47.9820 H       1  ZINC001082278299    0.0800
     50 H50        -0.3591   -0.2123   49.3055 H       1  ZINC001082278299    0.0800
     51 H51        -2.9336    4.2107   57.7797 H       1  ZINC001082278299    0.1300
     52 H52        -2.5204    6.7057   57.9805 H       1  ZINC001082278299    0.1000
     53 H53        -2.1532    6.7902   56.1751 H       1  ZINC001082278299    0.1000
     54 H54        -4.4826    5.9276   55.6610 H       1  ZINC001082278299    0.0900
     55 H55        -4.8497    5.8431   57.4665 H       1  ZINC001082278299    0.1000
@<TRIPOS>BOND
     1     1     2    1
     2     1    27    1
     3     1    28    1
     4     1    29    1
     5     2     3    2
     6     2    24    1
     7     3     4    1
     8     3    30    1
     9     4     5    2
    10     4     6   am
    11     6     7    1
    12     6    31    1
    13     7     8    1
    14     7    32    1
    15     7    33    1
    16     8     9    1
    17     8    14    1
    18     8    10    1
    19    10    11    1
    20    10    34    1
    21    10    35    1
    22    11    12    1
    23    11    36    1
    24    11    37    1
    25    12    13    1
    26    12    38    1
    27    12    39    1
    28    13    14    1
    29    13    40    1
    30    13    41    1
    31    14    15   am
    32    15    16    2
    33    15    17    1
    34    17    18    1
    35    17    42    1
    36    17    43    1
    37    18    23    1
    38    18    19    2
    39    19    20    1
    40    19    44    1
    41    20    21    1
    42    20    45    1
    43    20    46    1
    44    21    22    1
    45    22    23    1
    46    22    47    1
    47    22    48    1
    48    23    49    1
    49    23    50    1
    50    24    26    1
    51    24    25    1
    52    24    51    1
    53    25    26    1
    54    25    52    1
    55    25    53    1
    56    26    54    1
    57    26    55    1
@<TRIPOS>SUBSTRUCTURE
     1 ZINC001082278299        1 TEMP              0 ****  ****    0 ROOT


##########                                Name:    ZINC000163855860
##########                DOCK_Rotatable_Bonds:                   6
##########                         Heavy_Atoms:                  28
##########                    Molecular_Weight:             398.483
##########                DOCK_Rotatable_Bonds:                   6
##########                       Formal_Charge:          -0.0100004
##########                     HBond_Acceptors:                   7
##########                        HBond_Donors:                   1
##########                         Heavy_Atoms:                  28
##########                          Grid_Score:          -30.596607
##########                     Grid_vdw_energy:          -30.053780
##########                      Grid_es_energy:           -0.542828
##########           Internal_energy_repulsive:           15.828300

@<TRIPOS>MOLECULE
ZINC000163855860
 50 53 1 0 0
SMALL
USER_CHARGES


@<TRIPOS>ATOM
      1 C1          0.0250    3.5264   50.3591 C.3     1  ZINC000163855860   -0.1300
      2 C2         -0.4120    4.5077   49.3021 C.ar    1  ZINC000163855860   -0.0600
      3 C3         -1.3500    5.4825   49.6036 C.ar    1  ZINC000163855860    0.1400
      4 N4         -1.8925    5.5571   50.8915 N.am    1  ZINC000163855860   -0.6700
      5 C5         -3.2126    5.3600   51.0792 C.2     1  ZINC000163855860    0.5100
      6 O6         -3.9302    5.1180   50.1319 O.2     1  ZINC000163855860   -0.5100
      7 C7         -3.7967    5.4403   52.4660 C.3     1  ZINC000163855860   -0.1300
      8 C8         -4.2005    4.0397   52.9311 C.3     1  ZINC000163855860   -0.1100
      9 H9         -3.3520    3.3567   52.8919 H       1  ZINC000163855860    0.1100
     10 C10        -4.8056    4.0850   54.3528 C.3     1  ZINC000163855860    0.0600
     11 O11        -5.8394    3.0564   54.3409 O.3     1  ZINC000163855860   -0.3500
     12 C12        -6.3523    2.9389   53.1078 C.2     1  ZINC000163855860    0.4800
     13 O13        -7.4289    2.4569   52.8462 O.2     1  ZINC000163855860   -0.4500
     14 C14        -5.3805    3.5002   52.0926 C.3     1  ZINC000163855860   -0.1800
     15 C15        -1.7475    6.3898   48.6284 C.ar    1  ZINC000163855860   -0.1100
     16 C16        -1.2139    6.3209   47.3553 C.ar    1  ZINC000163855860   -0.1100
     17 C17        -0.2828    5.3509   47.0437 C.ar    1  ZINC000163855860   -0.1000
     18 C18         0.1226    4.4349   48.0157 C.ar    1  ZINC000163855860   -0.1100
     19 C19         1.1203    3.3950   47.6847 C.2     1  ZINC000163855860    0.5700
     20 O20         2.3038    3.6114   47.8575 O.2     1  ZINC000163855860   -0.5300
     21 N21         0.7175    2.2073   47.1916 N.am    1  ZINC000163855860   -0.6100
     22 C22         1.6932    1.1594   46.8558 C.3     1  ZINC000163855860    0.1200
     23 C23         1.4609   -0.0352   47.7943 C.3     1  ZINC000163855860   -0.0600
     24 C24        -0.0231   -0.3260   47.8658 C.2     1  ZINC000163855860   -0.1700
     25 C25        -0.9982    0.5317   47.5101 C.2     1  ZINC000163855860   -0.1300
     26 C26        -2.2824    0.0248   47.6819 C.2     1  ZINC000163855860   -0.1200
     27 C27        -2.3529   -1.2137   48.1596 C.2     1  ZINC000163855860   -0.2100
     28 S28        -0.7314   -1.8333   48.4322 S.3     1  ZINC000163855860    0.1100
     29 C29        -0.7081    1.9272   46.9694 C.3     1  ZINC000163855860    0.1700
     30 H30        -0.5655    2.6140   50.2741 H       1  ZINC000163855860    0.0700
     31 H31         1.0802    3.2904   50.2217 H       1  ZINC000163855860    0.0900
     32 H32        -0.1239    3.9650   51.3458 H       1  ZINC000163855860    0.0700
     33 H33        -1.3185    5.7505   51.6492 H       1  ZINC000163855860    0.4100
     34 H34        -4.6747    6.0862   52.4536 H       1  ZINC000163855860    0.1100
     35 H35        -3.0537    5.8502   53.1500 H       1  ZINC000163855860    0.1100
     36 H36        -5.2443    5.0634   54.5488 H       1  ZINC000163855860    0.0800
     37 H37        -4.0451    3.8515   55.0979 H       1  ZINC000163855860    0.1200
     38 H38        -5.0391    2.7141   51.4191 H       1  ZINC000163855860    0.1200
     39 H39        -5.8460    4.3085   51.5285 H       1  ZINC000163855860    0.1200
     40 H40        -2.4754    7.1512   48.8664 H       1  ZINC000163855860    0.1500
     41 H41        -1.5263    7.0288   46.6019 H       1  ZINC000163855860    0.1300
     42 H42         0.1317    5.3004   46.0477 H       1  ZINC000163855860    0.1300
     43 H43         1.5536    0.8472   45.8209 H       1  ZINC000163855860    0.0800
     44 H44         2.7043    1.5436   46.9919 H       1  ZINC000163855860    0.1000
     45 H45         1.8341    0.2033   48.7902 H       1  ZINC000163855860    0.0900
     46 H46         1.9854   -0.9093   47.4081 H       1  ZINC000163855860    0.0900
     47 H47        -3.1645    0.6001   47.4428 H       1  ZINC000163855860    0.1400
     48 H48        -3.2670   -1.7563   48.3504 H       1  ZINC000163855860    0.1700
     49 H49        -1.3154    2.6617   47.4984 H       1  ZINC000163855860    0.1000
     50 H50        -0.9299    1.9643   45.9028 H       1  ZINC000163855860    0.0900
@<TRIPOS>BOND
     1     1     2    1
     2     1    30    1
     3     1    31    1
     4     1    32    1
     5     2    18   ar
     6     2     3   ar
     7     3     4    1
     8     3    15   ar
     9     4     5   am
    10     4    33    1
    11     5     6    2
    12     5     7    1
    13     7     8    1
    14     7    34    1
    15     7    35    1
    16     8     9    1
    17     8    14    1
    18     8    10    1
    19    10    11    1
    20    10    36    1
    21    10    37    1
    22    11    12    1
    23    12    13    2
    24    12    14    1
    25    14    38    1
    26    14    39    1
    27    15    16   ar
    28    15    40    1
    29    16    17   ar
    30    16    41    1
    31    17    18   ar
    32    17    42    1
    33    18    19    1
    34    19    20    2
    35    19    21   am
    36    21    29    1
    37    21    22    1
    38    22    23    1
    39    22    43    1
    40    22    44    1
    41    23    24    1
    42    23    45    1
    43    23    46    1
    44    24    28    1
    45    24    25    2
    46    25    26    1
    47    25    29    1
    48    26    27    2
    49    26    47    1
    50    27    28    1
    51    27    48    1
    52    29    49    1
    53    29    50    1
@<TRIPOS>SUBSTRUCTURE
     1 ZINC000163855860        1 TEMP              0 ****  ****    0 ROOT


##########                                Name:    ZINC000028372981
##########                DOCK_Rotatable_Bonds:                   7
##########                         Heavy_Atoms:                  28
##########                    Molecular_Weight:             380.443
##########                DOCK_Rotatable_Bonds:                   7
##########                       Formal_Charge:         1.78814e-07
##########                     HBond_Acceptors:                   6
##########                        HBond_Donors:                   1
##########                         Heavy_Atoms:                  28
##########                          Grid_Score:          -30.595631
##########                     Grid_vdw_energy:          -30.363625
##########                      Grid_es_energy:           -0.232007
##########           Internal_energy_repulsive:          170.806290

@<TRIPOS>MOLECULE
ZINC000028372981
 52 54 1 0 0
SMALL
USER_CHARGES


@<TRIPOS>ATOM
      1 C1        -13.8751   -2.1929   61.6446 C.3     1  ZINC000028372981   -0.1800
      2 C2        -13.0181   -1.8606   60.4504 C.2     1  ZINC000028372981    0.5200
      3 O3        -12.1872   -0.9805   60.5264 O.2     1  ZINC000028372981   -0.5100
      4 N4        -13.1752   -2.5414   59.2979 N.am    1  ZINC000028372981   -0.5500
      5 C5        -14.1415   -3.6223   59.0875 C.3     1  ZINC000028372981    0.1000
      6 C6        -13.9354   -4.0704   57.6313 C.3     1  ZINC000028372981   -0.0900
      7 C7        -12.8303   -3.1772   57.1129 C.ar    1  ZINC000028372981   -0.1500
      8 C8        -12.2283   -3.1145   55.8763 C.ar    1  ZINC000028372981    0.0000
      9 C9        -11.2079   -2.1884   55.6412 C.ar    1  ZINC000028372981   -0.1600
     10 C10       -10.5561   -2.1204   54.3203 C.2     1  ZINC000028372981    0.5200
     11 O11       -10.4974   -3.1119   53.6202 O.2     1  ZINC000028372981   -0.5000
     12 O12       -10.0258   -0.9591   53.8895 O.3     1  ZINC000028372981   -0.3200
     13 C13       -10.0015   -0.7375   52.4548 C.3     1  ZINC000028372981    0.0700
     14 H14        -9.5086   -1.5777   51.9656 H       1  ZINC000028372981    0.1200
     15 C15        -9.2346    0.5511   52.1506 C.3     1  ZINC000028372981   -0.1700
     16 C16       -11.4131   -0.6151   51.9414 C.2     1  ZINC000028372981    0.5200
     17 O17       -12.0224   -1.6067   51.6002 O.2     1  ZINC000028372981   -0.4900
     18 N18       -11.9985    0.5963   51.8615 N.am    1  ZINC000028372981   -0.6600
     19 C19       -13.3091    0.7100   51.3848 C.ar    1  ZINC000028372981    0.1500
     20 C20       -14.0076   -0.4242   50.9927 C.ar    1  ZINC000028372981   -0.1300
     21 C21       -15.3015   -0.3087   50.5230 C.ar    1  ZINC000028372981   -0.1000
     22 C22       -15.9013    0.9345   50.4437 C.ar    1  ZINC000028372981   -0.1300
     23 C23       -15.2084    2.0661   50.8339 C.ar    1  ZINC000028372981   -0.0700
     24 C24       -15.8662    3.4190   50.7462 C.3     1  ZINC000028372981   -0.1200
     25 C25       -13.9143    1.9575   51.3034 C.ar    1  ZINC000028372981   -0.1200
     26 C26       -13.1598    3.1910   51.7275 C.3     1  ZINC000028372981   -0.1200
     27 C27       -10.8140   -1.3231   56.6661 C.ar    1  ZINC000028372981   -0.0200
     28 C28       -11.4239   -1.3891   57.8954 C.ar    1  ZINC000028372981   -0.1800
     29 C29       -12.4417   -2.3191   58.1339 C.ar    1  ZINC000028372981    0.1900
     30 H30       -13.7144   -3.2328   61.9291 H       1  ZINC000028372981    0.1000
     31 H31       -13.6061   -1.5427   62.4771 H       1  ZINC000028372981    0.1000
     32 H32       -14.9247   -2.0436   61.3914 H       1  ZINC000028372981    0.1000
     33 H33       -13.9391   -4.4483   59.7694 H       1  ZINC000028372981    0.0900
     34 H34       -15.1575   -3.2541   59.2296 H       1  ZINC000028372981    0.0900
     35 H35       -13.6285   -5.1156   57.5947 H       1  ZINC000028372981    0.1000
     36 H36       -14.8486   -3.9224   57.0549 H       1  ZINC000028372981    0.1000
     37 H37       -12.5415   -3.7839   55.0888 H       1  ZINC000028372981    0.1400
     38 H38        -9.7276    1.3913   52.6397 H       1  ZINC000028372981    0.0800
     39 H39        -8.2137    0.4626   52.5220 H       1  ZINC000028372981    0.0800
     40 H40        -9.2164    0.7175   51.0735 H       1  ZINC000028372981    0.0800
     41 H41       -11.5111    1.3894   52.1343 H       1  ZINC000028372981    0.4100
     42 H42       -13.5413   -1.3962   51.0591 H       1  ZINC000028372981    0.1400
     43 H43       -15.8452   -1.1905   50.2179 H       1  ZINC000028372981    0.1300
     44 H44       -16.9132    1.0221   50.0765 H       1  ZINC000028372981    0.1200
     45 H45       -16.3819    3.6338   51.6822 H       1  ZINC000028372981    0.0700
     46 H46       -15.1077    4.1808   50.5662 H       1  ZINC000028372981    0.0700
     47 H47       -16.5850    3.4212   49.9267 H       1  ZINC000028372981    0.0700
     48 H48       -13.3345    3.3776   52.7871 H       1  ZINC000028372981    0.0700
     49 H49       -12.0937    3.0419   51.5558 H       1  ZINC000028372981    0.0600
     50 H50       -13.5052    4.0460   51.1464 H       1  ZINC000028372981    0.0800
     51 H51       -10.0295   -0.6018   56.4911 H       1  ZINC000028372981    0.1500
     52 H52       -11.1152   -0.7184   58.6836 H       1  ZINC000028372981    0.1500
@<TRIPOS>BOND
     1     1     2    1
     2     1    30    1
     3     1    31    1
     4     1    32    1
     5     2     3    2
     6     2     4   am
     7     4    29    1
     8     4     5    1
     9     5     6    1
    10     5    33    1
    11     5    34    1
    12     6     7    1
    13     6    35    1
    14     6    36    1
    15     7    29   ar
    16     7     8   ar
    17     8     9   ar
    18     8    37    1
    19     9    10    1
    20     9    27   ar
    21    10    11    2
    22    10    12    1
    23    12    13    1
    24    13    14    1
    25    13    15    1
    26    13    16    1
    27    15    38    1
    28    15    39    1
    29    15    40    1
    30    16    17    2
    31    16    18   am
    32    18    19    1
    33    18    41    1
    34    19    25   ar
    35    19    20   ar
    36    20    21   ar
    37    20    42    1
    38    21    22   ar
    39    21    43    1
    40    22    23   ar
    41    22    44    1
    42    23    24    1
    43    23    25   ar
    44    24    45    1
    45    24    46    1
    46    24    47    1
    47    25    26    1
    48    26    48    1
    49    26    49    1
    50    26    50    1
    51    27    28   ar
    52    27    51    1
    53    28    29   ar
    54    28    52    1
@<TRIPOS>SUBSTRUCTURE
     1 ZINC000028372981        1 TEMP              0 ****  ****    0 ROOT


##########                                Name:    ZINC000342525234
##########                DOCK_Rotatable_Bonds:                   6
##########                         Heavy_Atoms:                  25
##########                    Molecular_Weight:             333.349
##########                DOCK_Rotatable_Bonds:                   6
##########                       Formal_Charge:           0.0500003
##########                     HBond_Acceptors:                   7
##########                        HBond_Donors:                   2
##########                         Heavy_Atoms:                  25
##########                          Grid_Score:          -30.588747
##########                     Grid_vdw_energy:          -28.287088
##########                      Grid_es_energy:           -2.301659
##########           Internal_energy_repulsive:            4.777397

@<TRIPOS>MOLECULE
ZINC000342525234
 40 43 1 0 0
SMALL
USER_CHARGES


@<TRIPOS>ATOM
      1 O1          0.6039    3.7615   52.4074 O.2     1  <0>        -0.5100
      2 C2         -0.5939    3.7725   52.2049 C.2     1  <0>         0.6000
      3 N3         -1.0638    3.9106   50.9492 N.am    1  <0>        -0.7100
      4 C4         -0.1303    4.0534   49.8293 C.3     1  <0>         0.1200
      5 C5         -0.7804    3.5182   48.5519 C.3     1  <0>        -0.0900
      6 C6         -0.5633    2.0295   48.4635 C.ar    1  <0>        -0.0400
      7 C7         -1.6391    1.2037   48.4850 C.ar    1  <0>        -0.1000
      8 C8         -1.4480   -0.1924   48.4029 C.ar    1  <0>         0.1100
      9 N9         -2.2509   -1.2408   48.3975 N.2     1  <0>        -0.3100
     10 N10        -1.4796   -2.4039   48.2933 N.pl3   1  <0>        -0.4200
     11 C11        -0.1793   -2.0863   48.2326 C.2     1  <0>         0.0900
     12 C12        -0.0747   -0.7093   48.2958 C.ar    1  <0>        -0.2100
     13 C13         0.9971    0.2087   48.2793 C.ar    1  <0>        -0.0400
     14 C14         0.7399    1.5385   48.3561 C.ar    1  <0>        -0.1500
     15 C15        -1.5393    3.6279   53.3388 C.2     1  <0>        -0.0200
     16 N16        -1.2341    3.5427   54.6106 N.2     1  <0>        -0.3200
     17 O17        -2.2197    3.4315   55.3015 O.3     1  <0>         0.1400
     18 C18        -3.3456    3.4273   54.5664 C.2     1  <0>         0.0100
     19 C19        -4.7316    3.3087   55.0687 C.ar    1  <0>         0.0200
     20 C20        -4.9878    3.0841   56.4263 C.ar    1  <0>        -0.1400
     21 C21        -6.2962    2.9804   56.8516 C.ar    1  <0>         0.1100
     22 N22        -7.2966    3.0895   55.9986 N.ar    1  <0>        -0.4800
     23 C23        -7.0993    3.3011   54.7114 C.ar    1  <0>         0.1100
     24 C24        -5.8235    3.4235   54.2009 C.ar    1  <0>        -0.1500
     25 C25        -2.9555    3.5604   53.2634 C.2     1  <0>        -0.1500
     26 H26        -2.0202    3.9155   50.7871 H       1  <0>         0.4100
     27 H27         0.1195    5.1060   49.6964 H       1  <0>         0.0800
     28 H28         0.7779    3.4883   50.0391 H       1  <0>         0.0800
     29 H29        -1.8496    3.7288   48.5727 H       1  <0>         0.0900
     30 H30        -0.3313    4.0030   47.6850 H       1  <0>         0.0800
     31 H31        -2.6358    1.6118   48.5648 H       1  <0>         0.1300
     32 H32        -1.8338   -3.3066   48.2690 H       1  <0>         0.4500
     33 H33         0.6418   -2.7829   48.1493 H       1  <0>         0.1900
     34 H34         2.0147   -0.1447   48.2014 H       1  <0>         0.1300
     35 H35         1.5649    2.2353   48.3425 H       1  <0>         0.1200
     36 H36        -4.1737    2.9931   57.1300 H       1  <0>         0.1400
     37 H37        -6.5042    2.8072   57.8971 H       1  <0>         0.1700
     38 H38        -7.9483    3.3837   54.0491 H       1  <0>         0.1700
     39 H39        -5.6695    3.5968   53.1460 H       1  <0>         0.1500
     40 H40        -3.5783    3.5988   52.3818 H       1  <0>         0.1900
@<TRIPOS>BOND
     1     1     2    2
     2     2     3   am
     3     2    15    1
     4     3     4    1
     5     3    26    1
     6     4     5    1
     7     4    27    1
     8     4    28    1
     9     5     6    1
    10     5    29    1
    11     5    30    1
    12     6    14   ar
    13     6     7   ar
    14     7     8   ar
    15     7    31    1
    16     8    12   ar
    17     8     9    2
    18     9    10    1
    19    10    11    1
    20    10    32    1
    21    11    12    2
    22    11    33    1
    23    12    13   ar
    24    13    14   ar
    25    13    34    1
    26    14    35    1
    27    15    25    1
    28    15    16    2
    29    16    17    1
    30    17    18    1
    31    18    19    1
    32    18    25    2
    33    19    24   ar
    34    19    20   ar
    35    20    21   ar
    36    20    36    1
    37    21    22   ar
    38    21    37    1
    39    22    23   ar
    40    23    24   ar
    41    23    38    1
    42    24    39    1
    43    25    40    1
@<TRIPOS>SUBSTRUCTURE
     1 <0>         1 TEMP              0 ****  ****    0 ROOT


##########                                Name:    ZINC000501032137
##########                DOCK_Rotatable_Bonds:                  10
##########                         Heavy_Atoms:                  25
##########                    Molecular_Weight:             407.307
##########                DOCK_Rotatable_Bonds:                  10
##########                       Formal_Charge:           0.0099998
##########                     HBond_Acceptors:                   5
##########                        HBond_Donors:                   1
##########                         Heavy_Atoms:                  25
##########                          Grid_Score:          -30.569904
##########                     Grid_vdw_energy:          -29.780981
##########                      Grid_es_energy:           -0.788923
##########           Internal_energy_repulsive:           12.547366

@<TRIPOS>MOLECULE
ZINC000501032137
 48 50 1 0 0
SMALL
USER_CHARGES


@<TRIPOS>ATOM
      1 C1         -1.4433    2.9044   56.6294 C.3     1  ZINC000501032137   -0.1500
      2 C2         -0.6702    2.6838   55.3276 C.3     1  ZINC000501032137   -0.1200
      3 C3         -1.4097    3.3639   54.1738 C.3     1  ZINC000501032137    0.0600
      4 O4         -0.6387    3.2430   52.9768 O.3     1  ZINC000501032137   -0.3800
      5 C5         -1.0319    4.1429   51.9388 C.3     1  ZINC000501032137    0.0500
      6 C6         -2.2695    3.5917   51.2277 C.3     1  ZINC000501032137    0.1600
      7 H7         -2.4004    2.5414   51.4880 H       1  ZINC000501032137    0.1000
      8 C8         -2.0890    3.7234   49.7141 C.3     1  ZINC000501032137   -0.0900
      9 C9         -1.2846    2.5571   49.2008 C.ar    1  ZINC000501032137   -0.0600
     10 C10         0.0618    2.7125   48.9295 C.ar    1  ZINC000501032137   -0.0900
     11 C11         0.8004    1.6427   48.4585 C.ar    1  ZINC000501032137   -0.1100
     12 C12         0.1927    0.4177   48.2587 C.ar    1  ZINC000501032137   -0.0900
     13 C13        -1.1549    0.2619   48.5300 C.ar    1  ZINC000501032137   -0.0800
     14 Br14       -1.9870   -1.4142   48.2567 Br      1  ZINC000501032137   -0.0600
     15 C15        -1.8920    1.3306   49.0066 C.ar    1  ZINC000501032137   -0.0800
     16 N16        -3.4513    4.3495   51.6463 N.am    1  ZINC000501032137   -0.7100
     17 C17        -4.6526    3.7421   51.7131 C.2     1  ZINC000501032137    0.6100
     18 O18        -4.7551    2.5645   51.4272 O.2     1  ZINC000501032137   -0.5200
     19 C19        -5.8421    4.5050   52.1326 C.2     1  ZINC000501032137   -0.0800
     20 C20        -7.0147    3.9875   52.5900 C.2     1  ZINC000501032137    0.0800
     21 C21        -7.3436    2.5271   52.7632 C.3     1  ZINC000501032137   -0.0800
     22 C22        -8.1978    2.1336   53.9700 C.3     1  ZINC000501032137   -0.1700
     23 C23        -8.7999    2.1024   52.5637 C.3     1  ZINC000501032137   -0.1500
     24 O24        -7.8227    5.0257   52.8579 O.3     1  ZINC000501032137   -0.2000
     25 C25        -7.1616    6.1563   52.5717 C.2     1  ZINC000501032137    0.1800
     26 N26        -5.9721    5.8594   52.1411 N.2     1  ZINC000501032137   -0.4600
     27 H27        -1.5224    3.9731   56.8284 H       1  ZINC000501032137    0.0600
     28 H28        -2.4417    2.4773   56.5359 H       1  ZINC000501032137    0.0600
     29 H29        -0.9165    2.4198   57.4515 H       1  ZINC000501032137    0.0600
     30 H30         0.3283    3.1108   55.4213 H       1  ZINC000501032137    0.0700
     31 H31        -0.5910    1.6150   55.1288 H       1  ZINC000501032137    0.0700
     32 H32        -2.3789    2.8859   54.0315 H       1  ZINC000501032137    0.0500
     33 H33        -1.5555    4.4186   54.4072 H       1  ZINC000501032137    0.0500
     34 H34        -1.2645    5.1164   52.3705 H       1  ZINC000501032137    0.0700
     35 H35        -0.2178    4.2486   51.2217 H       1  ZINC000501032137    0.0600
     36 H36        -3.0661    3.7316   49.2311 H       1  ZINC000501032137    0.0900
     37 H37        -1.5653    4.6527   49.4902 H       1  ZINC000501032137    0.0800
     38 H38         0.5370    3.6697   49.0852 H       1  ZINC000501032137    0.1200
     39 H39         1.8524    1.7646   48.2463 H       1  ZINC000501032137    0.1300
     40 H40         0.7697   -0.4177   47.8904 H       1  ZINC000501032137    0.1300
     41 H41        -2.9440    1.2093   49.2189 H       1  ZINC000501032137    0.1200
     42 H42        -3.3693    5.2885   51.8755 H       1  ZINC000501032137    0.4100
     43 H43        -6.5681    1.8298   52.4461 H       1  ZINC000501032137    0.1500
     44 H44        -7.9841    1.1771   54.4473 H       1  ZINC000501032137    0.1100
     45 H45        -8.5219    2.9309   54.6386 H       1  ZINC000501032137    0.1000
     46 H46        -9.5202    2.8793   52.3074 H       1  ZINC000501032137    0.1000
     47 H47        -8.9825    1.1255   52.1160 H       1  ZINC000501032137    0.1100
     48 H48        -7.5544    7.1560   52.6846 H       1  ZINC000501032137    0.2500
@<TRIPOS>BOND
     1     1     2    1
     2     1    27    1
     3     1    28    1
     4     1    29    1
     5     2     3    1
     6     2    30    1
     7     2    31    1
     8     3     4    1
     9     3    32    1
    10     3    33    1
    11     4     5    1
    12     5     6    1
    13     5    34    1
    14     5    35    1
    15     6     7    1
    16     6     8    1
    17     6    16    1
    18     8     9    1
    19     8    36    1
    20     8    37    1
    21     9    15   ar
    22     9    10   ar
    23    10    11   ar
    24    10    38    1
    25    11    12   ar
    26    11    39    1
    27    12    13   ar
    28    12    40    1
    29    13    14    1
    30    13    15   ar
    31    15    41    1
    32    16    17   am
    33    16    42    1
    34    17    18    2
    35    17    19    1
    36    19    26    1
    37    19    20    2
    38    20    21    1
    39    20    24    1
    40    21    23    1
    41    21    22    1
    42    21    43    1
    43    22    23    1
    44    22    44    1
    45    22    45    1
    46    23    46    1
    47    23    47    1
    48    24    25    1
    49    25    26    2
    50    25    48    1
@<TRIPOS>SUBSTRUCTURE
     1 ZINC000501032137        1 TEMP              0 ****  ****    0 ROOT


##########                                Name:    ZINC001058079801
##########                DOCK_Rotatable_Bonds:                   7
##########                         Heavy_Atoms:                  24
##########                    Molecular_Weight:             349.457
##########                DOCK_Rotatable_Bonds:                   7
##########                       Formal_Charge:           0.0200001
##########                     HBond_Acceptors:                   8
##########                        HBond_Donors:                   0
##########                         Heavy_Atoms:                  24
##########                          Grid_Score:          -30.567680
##########                     Grid_vdw_energy:          -28.037991
##########                      Grid_es_energy:           -2.529690
##########           Internal_energy_repulsive:           27.311895

@<TRIPOS>MOLECULE
ZINC001058079801
 47 49 1 0 0
SMALL
USER_CHARGES


@<TRIPOS>ATOM
      1 C1          0.6867    2.4129   44.3107 C.3     1  ZINC001058079801   -0.1500
      2 C2          0.2170    0.9933   44.6348 C.3     1  ZINC001058079801   -0.1200
      3 C3         -1.3120    0.9596   44.6785 C.3     1  ZINC001058079801   -0.0300
      4 C4         -1.7690    0.7273   46.0957 C.2     1  ZINC001058079801    0.2900
      5 N5         -2.4650   -0.3256   46.4127 N.2     1  ZINC001058079801   -0.4800
      6 S6         -2.7639   -0.1964   48.0807 S.3     1  ZINC001058079801    0.1900
      7 C7         -1.9190    1.2948   48.2567 C.2     1  ZINC001058079801    0.2700
      8 N8         -1.7427    2.0313   49.4141 N.3     1  ZINC001058079801   -0.4300
      9 C9         -3.0326    2.3317   50.0484 C.3     1  ZINC001058079801    0.0700
     10 C10        -2.7927    3.0178   51.3952 C.3     1  ZINC001058079801   -0.1300
     11 C11        -2.0003    4.3088   51.1707 C.3     1  ZINC001058079801    0.1300
     12 N12        -1.7173    4.9402   52.4620 N.am    1  ZINC001058079801   -0.6100
     13 C13        -2.2080    6.2923   52.7394 C.3     1  ZINC001058079801    0.0700
     14 C14        -1.0056    4.2770   53.3949 C.2     1  ZINC001058079801    0.5200
     15 O15        -0.6007    3.1569   53.1658 O.2     1  ZINC001058079801   -0.5300
     16 C16        -0.7130    4.9271   54.7225 C.3     1  ZINC001058079801   -0.0600
     17 C17        -0.2330    3.8836   55.6979 C.2     1  ZINC001058079801   -0.1900
     18 C18        -0.8790    3.3978   56.7848 C.2     1  ZINC001058079801   -0.0400
     19 O19        -0.0614    2.4916   57.3387 O.3     1  ZINC001058079801    0.1000
     20 N20         0.9716    2.3870   56.7188 N.2     1  ZINC001058079801   -0.3600
     21 C21         0.9936    3.1803   55.6869 C.2     1  ZINC001058079801    0.0000
     22 C22        -0.6832    3.9737   50.4654 C.3     1  ZINC001058079801   -0.1200
     23 C23        -0.9842    3.2598   49.1456 C.3     1  ZINC001058079801    0.0400
     24 N24        -1.4729    1.5778   47.0510 N.2     1  ZINC001058079801   -0.5300
     25 H25         1.7760    2.4370   44.2796 H       1  ZINC001058079801    0.0600
     26 H26         0.2887    2.7150   43.3421 H       1  ZINC001058079801    0.0600
     27 H27         0.3300    3.0981   45.0798 H       1  ZINC001058079801    0.0600
     28 H28         0.5737    0.3081   43.8657 H       1  ZINC001058079801    0.0700
     29 H29         0.6150    0.6912   45.6035 H       1  ZINC001058079801    0.0700
     30 H30        -1.7068    1.9105   44.3208 H       1  ZINC001058079801    0.1000
     31 H31        -1.6760    0.1526   44.0426 H       1  ZINC001058079801    0.0900
     32 H32        -3.6101    2.9923   49.4019 H       1  ZINC001058079801    0.0600
     33 H33        -3.5842    1.4049   50.2062 H       1  ZINC001058079801    0.1000
     34 H34        -3.7504    3.2547   51.8586 H       1  ZINC001058079801    0.0800
     35 H35        -2.2270    2.3524   52.0471 H       1  ZINC001058079801    0.0800
     36 H36        -2.5830    4.9908   50.5516 H       1  ZINC001058079801    0.1000
     37 H37        -3.1983    6.2340   53.1910 H       1  ZINC001058079801    0.0600
     38 H38        -1.5248    6.7933   53.4253 H       1  ZINC001058079801    0.0800
     39 H39        -2.2660    6.8560   51.8083 H       1  ZINC001058079801    0.0800
     40 H40         0.0587    5.6860   54.5932 H       1  ZINC001058079801    0.1100
     41 H41        -1.6203    5.3934   55.1066 H       1  ZINC001058079801    0.1100
     42 H42        -1.8594    3.6842   57.1358 H       1  ZINC001058079801    0.2200
     43 H43         1.7932    3.2855   54.9686 H       1  ZINC001058079801    0.1900
     44 H44        -0.1338    4.8935   50.2644 H       1  ZINC001058079801    0.0900
     45 H45        -0.0843    3.3232   51.1027 H       1  ZINC001058079801    0.0800
     46 H46        -0.0480    3.0071   48.6476 H       1  ZINC001058079801    0.1000
     47 H47        -1.5714    3.9162   48.5034 H       1  ZINC001058079801    0.0700
@<TRIPOS>BOND
     1     1     2    1
     2     1    25    1
     3     1    26    1
     4     1    27    1
     5     2     3    1
     6     2    28    1
     7     2    29    1
     8     3     4    1
     9     3    30    1
    10     3    31    1
    11     4    24    1
    12     4     5    2
    13     5     6    1
    14     6     7    1
    15     7     8    1
    16     7    24    2
    17     8    23    1
    18     8     9    1
    19     9    10    1
    20     9    32    1
    21     9    33    1
    22    10    11    1
    23    10    34    1
    24    10    35    1
    25    11    12    1
    26    11    22    1
    27    11    36    1
    28    12    13    1
    29    12    14   am
    30    13    37    1
    31    13    38    1
    32    13    39    1
    33    14    15    2
    34    14    16    1
    35    16    17    1
    36    16    40    1
    37    16    41    1
    38    17    21    1
    39    17    18    2
    40    18    19    1
    41    18    42    1
    42    19    20    1
    43    20    21    2
    44    21    43    1
    45    22    23    1
    46    22    44    1
    47    22    45    1
    48    23    46    1
    49    23    47    1
@<TRIPOS>SUBSTRUCTURE
     1 ZINC001058079801        1 TEMP              0 ****  ****    0 ROOT


##########                                Name:    ZINC001220212140
##########                DOCK_Rotatable_Bonds:                   6
##########                         Heavy_Atoms:                  28
##########                    Molecular_Weight:             379.459
##########                DOCK_Rotatable_Bonds:                   6
##########                       Formal_Charge:         -0.00999925
##########                     HBond_Acceptors:                   6
##########                        HBond_Donors:                   1
##########                         Heavy_Atoms:                  28
##########                          Grid_Score:          -30.551561
##########                     Grid_vdw_energy:          -29.757267
##########                      Grid_es_energy:           -0.794294
##########           Internal_energy_repulsive:          172.656174

@<TRIPOS>MOLECULE
ZINC001220212140
 53 56 1 0 0
SMALL
USER_CHARGES


@<TRIPOS>ATOM
      1 C1        -13.0450   -1.1902   51.1617 C.3     1  ZINC001220212140   -0.1700
      2 C2        -11.5465   -1.3311   51.4366 C.3     1  ZINC001220212140    0.0800
      3 H3        -10.9713   -1.1682   50.5252 H       1  ZINC001220212140    0.1200
      4 C4        -11.0991   -0.3535   52.5490 C.3     1  ZINC001220212140   -0.1100
      5 C5        -11.2202   -1.2152   53.7911 C.ar    1  ZINC001220212140   -0.1500
      6 C6        -11.2432   -0.9038   55.1318 C.ar    1  ZINC001220212140   -0.0700
      7 C7        -11.3738   -1.9147   56.0762 C.ar    1  ZINC001220212140    0.1400
      8 N8        -11.3984   -1.6038   57.4425 N.am    1  ZINC001220212140   -0.6800
      9 C9        -12.5304   -1.7774   58.1529 C.2     1  ZINC001220212140    0.7200
     10 O10       -13.5305   -2.2038   57.6084 O.2     1  ZINC001220212140   -0.5700
     11 N11       -12.5540   -1.4784   59.4669 N.am    1  ZINC001220212140   -0.6300
     12 C12       -13.7159   -1.6190   60.3569 C.3     1  ZINC001220212140    0.0900
     13 C13       -13.2669   -1.1859   61.7683 C.3     1  ZINC001220212140   -0.1100
     14 C14       -11.7266   -1.3636   61.7129 C.3     1  ZINC001220212140   -0.1300
     15 H15       -11.4460   -2.4006   61.8974 H       1  ZINC001220212140    0.1200
     16 C16       -11.0408   -0.4402   62.6866 C.2     1  ZINC001220212140    0.5300
     17 O17       -11.6991    0.2976   63.3890 O.2     1  ZINC001220212140   -0.5100
     18 N18        -9.6961   -0.4342   62.7769 N.am    1  ZINC001220212140   -0.5700
     19 C19        -8.9010   -1.3253   61.9284 C.3     1  ZINC001220212140    0.0700
     20 C20        -9.0595    0.4232   63.6810 C.ar    1  ZINC001220212140    0.1400
     21 C21        -7.6738    0.4340   63.7720 C.ar    1  ZINC001220212140   -0.1100
     22 C22        -7.0484    1.2815   64.6654 C.ar    1  ZINC001220212140   -0.1100
     23 C23        -7.8006    2.1185   65.4690 C.ar    1  ZINC001220212140   -0.1200
     24 C24        -9.1806    2.1098   65.3811 C.ar    1  ZINC001220212140   -0.1100
     25 C25        -9.8118    1.2694   64.4852 C.ar    1  ZINC001220212140   -0.1200
     26 C26       -11.4175   -0.9622   60.2513 C.3     1  ZINC001220212140    0.1400
     27 C27       -11.4803   -3.2342   55.6584 C.ar    1  ZINC001220212140   -0.1100
     28 C28       -11.4532   -3.5424   54.3144 C.ar    1  ZINC001220212140   -0.1200
     29 C29       -11.3190   -2.5335   53.3642 C.ar    1  ZINC001220212140    0.0900
     30 O30       -11.2514   -2.6196   52.0018 O.3     1  ZINC001220212140   -0.3000
     31 H31       -13.6016   -1.3687   52.0817 H       1  ZINC001220212140    0.0600
     32 H32       -13.2550   -0.1837   50.7996 H       1  ZINC001220212140    0.0800
     33 H33       -13.3461   -1.9176   50.4079 H       1  ZINC001220212140    0.0700
     34 H34       -10.0684   -0.0341   52.3954 H       1  ZINC001220212140    0.0900
     35 H35       -11.7675    0.5057   52.6045 H       1  ZINC001220212140    0.0900
     36 H36       -11.1602    0.1252   55.4493 H       1  ZINC001220212140    0.1400
     37 H37       -10.6005   -1.2637   57.8770 H       1  ZINC001220212140    0.4100
     38 H38       -14.5266   -0.9769   60.0124 H       1  ZINC001220212140    0.0700
     39 H39       -14.0453   -2.6579   60.3751 H       1  ZINC001220212140    0.0700
     40 H40       -13.5285   -0.1441   61.9536 H       1  ZINC001220212140    0.1000
     41 H41       -13.7029   -1.8349   62.5278 H       1  ZINC001220212140    0.0900
     42 H42        -8.6585   -0.8175   60.9950 H       1  ZINC001220212140    0.0700
     43 H43        -7.9800   -1.5936   62.4459 H       1  ZINC001220212140    0.0800
     44 H44        -9.4729   -2.2279   61.7131 H       1  ZINC001220212140    0.0800
     45 H45        -7.0858   -0.2200   63.1451 H       1  ZINC001220212140    0.1200
     46 H46        -5.9708    1.2903   64.7366 H       1  ZINC001220212140    0.1300
     47 H47        -7.3092    2.7799   66.1671 H       1  ZINC001220212140    0.1300
     48 H48        -9.7652    2.7642   66.0107 H       1  ZINC001220212140    0.1300
     49 H49       -10.8895    1.2631   64.4169 H       1  ZINC001220212140    0.1200
     50 H50       -10.4852   -1.4202   59.9211 H       1  ZINC001220212140    0.0900
     51 H51       -11.3616    0.1225   60.1595 H       1  ZINC001220212140    0.0700
     52 H52       -11.5843   -4.0227   56.3890 H       1  ZINC001220212140    0.1300
     53 H53       -11.5366   -4.5715   53.9974 H       1  ZINC001220212140    0.1300
@<TRIPOS>BOND
     1     1     2    1
     2     1    31    1
     3     1    32    1
     4     1    33    1
     5     2     3    1
     6     2    30    1
     7     2     4    1
     8     4     5    1
     9     4    34    1
    10     4    35    1
    11     5    29   ar
    12     5     6   ar
    13     6     7   ar
    14     6    36    1
    15     7     8    1
    16     7    27   ar
    17     8     9   am
    18     8    37    1
    19     9    10    2
    20     9    11   am
    21    11    26    1
    22    11    12    1
    23    12    13    1
    24    12    38    1
    25    12    39    1
    26    13    14    1
    27    13    40    1
    28    13    41    1
    29    14    15    1
    30    14    16    1
    31    14    26    1
    32    16    17    2
    33    16    18   am
    34    18    19    1
    35    18    20    1
    36    19    42    1
    37    19    43    1
    38    19    44    1
    39    20    25   ar
    40    20    21   ar
    41    21    22   ar
    42    21    45    1
    43    22    23   ar
    44    22    46    1
    45    23    24   ar
    46    23    47    1
    47    24    25   ar
    48    24    48    1
    49    25    49    1
    50    26    50    1
    51    26    51    1
    52    27    28   ar
    53    27    52    1
    54    28    29   ar
    55    28    53    1
    56    29    30    1
@<TRIPOS>SUBSTRUCTURE
     1 ZINC001220212140        1 TEMP              0 ****  ****    0 ROOT


##########                                Name:    ZINC000826435081
##########                DOCK_Rotatable_Bonds:                   7
##########                         Heavy_Atoms:                  28
##########                    Molecular_Weight:             388.361
##########                DOCK_Rotatable_Bonds:                   7
##########                       Formal_Charge:           0.0099996
##########                     HBond_Acceptors:                  12
##########                        HBond_Donors:                   3
##########                         Heavy_Atoms:                  28
##########                          Grid_Score:          -30.544088
##########                     Grid_vdw_energy:          -27.632490
##########                      Grid_es_energy:           -2.911598
##########           Internal_energy_repulsive:            7.527070

@<TRIPOS>MOLECULE
ZINC000826435081
 45 48 1 0 0
SMALL
USER_CHARGES


@<TRIPOS>ATOM
      1 O1         -9.4535    0.0195   62.7164 O.2     1  ZINC000826435081   -0.5700
      2 C2         -8.4084   -0.5204   62.4086 C.2     1  ZINC000826435081    0.7200
      3 N3         -7.4141   -0.6284   63.3120 N.am    1  ZINC000826435081   -0.7300
      4 C4         -7.5901   -0.0898   64.6629 C.3     1  ZINC000826435081    0.1500
      5 C5         -7.1491    1.3749   64.6895 C.3     1  ZINC000826435081    0.0400
      6 H6         -6.1323    1.4563   64.3051 H       1  ZINC000826435081    0.0800
      7 C7         -7.1956    1.8975   66.1283 C.3     1  ZINC000826435081    0.0300
      8 O8         -6.8902    3.2953   66.1301 O.3     1  ZINC000826435081   -0.3800
      9 C9         -7.7734    4.0754   65.3186 C.3     1  ZINC000826435081    0.0200
     10 C10        -7.7269    3.5529   63.8798 C.3     1  ZINC000826435081    0.0200
     11 O11        -8.0312    2.1549   63.8768 O.3     1  ZINC000826435081   -0.3700
     12 N12        -8.2464   -1.0160   61.1657 N.am    1  ZINC000826435081   -0.6400
     13 C13        -9.2801   -0.9037   60.2265 C.2     1  ZINC000826435081    0.3300
     14 N14       -10.1840   -1.8182   59.9641 N.2     1  ZINC000826435081   -0.2800
     15 N15       -11.0340   -1.3206   58.9680 N.pl3   1  ZINC000826435081   -0.3300
     16 C16       -12.1281   -1.9906   58.4092 C.ar    1  ZINC000826435081    0.2200
     17 C17       -11.9970   -2.6438   57.1929 C.ar    1  ZINC000826435081   -0.1300
     18 C18       -13.0777   -3.3053   56.6413 C.ar    1  ZINC000826435081   -0.0500
     19 C19       -14.2958   -3.3207   57.2963 C.ar    1  ZINC000826435081   -0.1500
     20 C20       -14.4422   -2.6739   58.5100 C.ar    1  ZINC000826435081    0.1500
     21 F21       -15.6335   -2.6917   59.1467 F       1  ZINC000826435081   -0.1100
     22 C22       -13.3566   -2.0088   59.0783 C.ar    1  ZINC000826435081   -0.0500
     23 C23       -13.5069   -1.3131   60.3799 C.2     1  ZINC000826435081    0.2100
     24 N24       -14.0507   -0.1290   60.5820 N.2     1  ZINC000826435081   -0.2800
     25 N25       -13.9913    0.1217   61.8447 N.pl3   1  ZINC000826435081   -0.2300
     26 N26       -13.4276   -0.8652   62.4490 N.2     1  ZINC000826435081   -0.0500
     27 N27       -13.1214   -1.7685   61.5808 N.2     1  ZINC000826435081   -0.2300
     28 C28       -10.6087   -0.0731   58.6405 C.2     1  ZINC000826435081    0.0700
     29 C29        -9.5314    0.2096   59.4076 C.2     1  ZINC000826435081   -0.2400
     30 H30        -6.5818   -1.0628   63.0677 H       1  ZINC000826435081    0.4000
     31 H31        -8.6401   -0.1584   64.9474 H       1  ZINC000826435081    0.0800
     32 H32        -6.9853   -0.6641   65.3647 H       1  ZINC000826435081    0.0900
     33 H33        -8.1926    1.7419   66.5402 H       1  ZINC000826435081    0.0700
     34 H34        -6.4629    1.3638   66.7336 H       1  ZINC000826435081    0.1100
     35 H35        -8.7899    3.9930   65.7033 H       1  ZINC000826435081    0.0600
     36 H36        -7.4592    5.1189   65.3375 H       1  ZINC000826435081    0.1100
     37 H37        -8.4596    4.0866   63.2745 H       1  ZINC000826435081    0.1100
     38 H38        -6.7299    3.7085   63.4678 H       1  ZINC000826435081    0.0600
     39 H39        -7.4142   -1.4502   60.9214 H       1  ZINC000826435081    0.4100
     40 H40       -11.0489   -2.6352   56.6758 H       1  ZINC000826435081    0.1500
     41 H41       -12.9706   -3.8125   55.6938 H       1  ZINC000826435081    0.1500
     42 H42       -15.1358   -3.8394   56.8582 H       1  ZINC000826435081    0.1500
     43 H43       -14.3200    0.9277   62.2726 H       1  ZINC000826435081    0.4800
     44 H44       -11.0540    0.5784   57.9031 H       1  ZINC000826435081    0.1800
     45 H45        -8.9606    1.1262   59.3885 H       1  ZINC000826435081    0.1800
@<TRIPOS>BOND
     1     1     2    2
     2     2     3   am
     3     2    12   am
     4     3     4    1
     5     3    30    1
     6     4     5    1
     7     4    31    1
     8     4    32    1
     9     5     6    1
    10     5    11    1
    11     5     7    1
    12     7     8    1
    13     7    33    1
    14     7    34    1
    15     8     9    1
    16     9    10    1
    17     9    35    1
    18     9    36    1
    19    10    11    1
    20    10    37    1
    21    10    38    1
    22    12    13    1
    23    12    39    1
    24    13    29    1
    25    13    14    2
    26    14    15    1
    27    15    16    1
    28    15    28    1
    29    16    22   ar
    30    16    17   ar
    31    17    18   ar
    32    17    40    1
    33    18    19   ar
    34    18    41    1
    35    19    20   ar
    36    19    42    1
    37    20    21    1
    38    20    22   ar
    39    22    23    1
    40    23    27    1
    41    23    24    2
    42    24    25    1
    43    25    26    1
    44    25    43    1
    45    26    27    2
    46    28    29    2
    47    28    44    1
    48    29    45    1
@<TRIPOS>SUBSTRUCTURE
     1 ZINC000826435081        1 TEMP              0 ****  ****    0 ROOT


##########                                Name:    ZINC000458730620
##########                DOCK_Rotatable_Bonds:                   9
##########                         Heavy_Atoms:                  25
##########                    Molecular_Weight:              375.44
##########                DOCK_Rotatable_Bonds:                   9
##########                       Formal_Charge:        -1.86265e-07
##########                     HBond_Acceptors:                   9
##########                        HBond_Donors:                   3
##########                         Heavy_Atoms:                  25
##########                          Grid_Score:          -30.543695
##########                     Grid_vdw_energy:          -27.949871
##########                      Grid_es_energy:           -2.593824
##########           Internal_energy_repulsive:           39.516098

@<TRIPOS>MOLECULE
ZINC000458730620
 48 49 1 0 0
SMALL
USER_CHARGES


@<TRIPOS>ATOM
      1 C1         -2.8698    5.4709   54.1997 C.3     1  ZINC000458730620   -0.1600
      2 C2         -2.2538    4.1150   54.5506 C.3     1  ZINC000458730620    0.2000
      3 C3         -2.9811    3.5219   55.7590 C.3     1  ZINC000458730620   -0.1600
      4 N4         -2.3861    3.2081   53.4076 N.am    1  ZINC000458730620   -0.7400
      5 C5         -1.7539    3.4860   52.2502 C.2     1  ZINC000458730620    0.7100
      6 O6         -1.0749    4.4902   52.1541 O.2     1  ZINC000458730620   -0.5800
      7 N7         -1.8742    2.6509   51.1992 N.am    1  ZINC000458730620   -0.7500
      8 C8         -1.1856    2.9522   49.9417 C.3     1  ZINC000458730620    0.1300
      9 C9         -1.9170    2.2702   48.7837 C.3     1  ZINC000458730620    0.1000
     10 N10        -1.6408    0.8317   48.8112 N.am    1  ZINC000458730620   -1.1100
     11 S11        -1.6338   -0.0372   47.4014 S.o2    1  ZINC000458730620    2.7000
     12 O12        -1.1908   -1.3447   47.7382 O.2     1  ZINC000458730620   -0.9400
     13 O13        -2.8772    0.2221   46.7642 O.2     1  ZINC000458730620   -0.9400
     14 C14        -0.3895    0.6586   46.3661 C.ar    1  ZINC000458730620   -0.7300
     15 C15        -0.7486    1.3728   45.2389 C.ar    1  ZINC000458730620    0.0400
     16 C16         0.2266    1.9196   44.4261 C.ar    1  ZINC000458730620   -0.1800
     17 C17         1.5645    1.7523   44.7405 C.ar    1  ZINC000458730620    0.1900
     18 F18         2.5174    2.2872   43.9460 F       1  ZINC000458730620   -0.1200
     19 C19         1.9255    1.0370   45.8694 C.ar    1  ZINC000458730620   -0.2100
     20 C20         0.9481    0.4944   46.6854 C.ar    1  ZINC000458730620    0.2200
     21 F21         1.2990   -0.2039   47.7874 F       1  ZINC000458730620   -0.1100
     22 C22        -0.7726    4.2993   54.8866 C.3     1  ZINC000458730620   -0.1100
     23 C23        -0.4649    4.1981   56.3899 C.3     1  ZINC000458730620   -0.1400
     24 C24         0.8018    3.4191   55.9982 C.3     1  ZINC000458730620   -0.1400
     25 C25         0.0630    3.0205   54.7097 C.3     1  ZINC000458730620   -0.1400
     26 H26        -2.8268    6.1255   55.0701 H       1  ZINC000458730620    0.0600
     27 H27        -2.3125    5.9215   53.3784 H       1  ZINC000458730620    0.0500
     28 H28        -3.9085    5.3316   53.9006 H       1  ZINC000458730620    0.0800
     29 H29        -4.0363    3.3906   55.5195 H       1  ZINC000458730620    0.0800
     30 H30        -2.5423    2.5559   56.0089 H       1  ZINC000458730620    0.0500
     31 H31        -2.8827    4.1967   56.6094 H       1  ZINC000458730620    0.0600
     32 H32        -2.9285    2.4077   53.4838 H       1  ZINC000458730620    0.3900
     33 H33        -2.4168    1.8505   51.2754 H       1  ZINC000458730620    0.4000
     34 H34        -1.1770    4.0302   49.7813 H       1  ZINC000458730620    0.0800
     35 H35        -0.1609    2.5840   49.9913 H       1  ZINC000458730620    0.0800
     36 H36        -2.9897    2.4361   48.8834 H       1  ZINC000458730620    0.0900
     37 H37        -1.5709    2.6886   47.8386 H       1  ZINC000458730620    0.0700
     38 H38        -1.4619    0.3882   49.6550 H       1  ZINC000458730620    0.4300
     39 H39        -1.7920    1.5035   44.9927 H       1  ZINC000458730620    0.1700
     40 H40        -0.0552    2.4773   43.5452 H       1  ZINC000458730620    0.1600
     41 H41         2.9689    0.9059   46.1154 H       1  ZINC000458730620    0.1600
     42 H42        -0.3359    5.1759   54.4083 H       1  ZINC000458730620    0.1100
     43 H43        -0.2582    5.1600   56.8591 H       1  ZINC000458730620    0.0700
     44 H44        -1.1897    3.6024   56.9449 H       1  ZINC000458730620    0.0800
     45 H45         1.6696    4.0554   55.8248 H       1  ZINC000458730620    0.0800
     46 H46         1.0176    2.5771   56.6560 H       1  ZINC000458730620    0.0700
     47 H47        -0.5176    2.1029   54.8053 H       1  ZINC000458730620    0.0800
     48 H48         0.6957    3.0317   53.8223 H       1  ZINC000458730620    0.0700
@<TRIPOS>BOND
     1     1     2    1
     2     1    26    1
     3     1    27    1
     4     1    28    1
     5     2     3    1
     6     2     4    1
     7     2    22    1
     8     3    29    1
     9     3    30    1
    10     3    31    1
    11     4     5   am
    12     4    32    1
    13     5     6    2
    14     5     7   am
    15     7     8    1
    16     7    33    1
    17     8     9    1
    18     8    34    1
    19     8    35    1
    20     9    10    1
    21     9    36    1
    22     9    37    1
    23    10    11   am
    24    10    38    1
    25    11    12    2
    26    11    13    2
    27    11    14    1
    28    14    20   ar
    29    14    15   ar
    30    15    16   ar
    31    15    39    1
    32    16    17   ar
    33    16    40    1
    34    17    18    1
    35    17    19   ar
    36    19    20   ar
    37    19    41    1
    38    20    21    1
    39    22    25    1
    40    22    23    1
    41    22    42    1
    42    23    24    1
    43    23    43    1
    44    23    44    1
    45    24    25    1
    46    24    45    1
    47    24    46    1
    48    25    47    1
    49    25    48    1
@<TRIPOS>SUBSTRUCTURE
     1 ZINC000458730620        1 TEMP              0 ****  ****    0 ROOT


##########                                Name:    ZINC000469435497
##########                DOCK_Rotatable_Bonds:                   6
##########                         Heavy_Atoms:                  27
##########                    Molecular_Weight:             364.444
##########                DOCK_Rotatable_Bonds:                   6
##########                       Formal_Charge:           0.0300001
##########                     HBond_Acceptors:                   5
##########                        HBond_Donors:                   2
##########                         Heavy_Atoms:                  27
##########                          Grid_Score:          -30.531332
##########                     Grid_vdw_energy:          -29.323097
##########                      Grid_es_energy:           -1.208234
##########           Internal_energy_repulsive:            4.635517

@<TRIPOS>MOLECULE
ZINC000469435497
 51 54 1 0 0
SMALL
USER_CHARGES


@<TRIPOS>ATOM
      1 C1        -12.6809   -0.9118   52.4677 C.3     1  ZINC000469435497   -0.1600
      2 C2        -11.3540   -1.4870   52.9671 C.3     1  ZINC000469435497    0.1000
      3 C3        -10.2752   -1.3709   51.8885 C.3     1  ZINC000469435497   -0.1400
      4 C4        -10.9085   -0.7846   54.2714 C.3     1  ZINC000469435497   -0.1000
      5 C5        -11.4916   -1.6964   55.3337 C.ar    1  ZINC000469435497   -0.1500
      6 C6        -11.7055   -1.5233   56.6824 C.ar    1  ZINC000469435497   -0.0700
      7 C7        -12.2752   -2.5462   57.4310 C.ar    1  ZINC000469435497    0.1100
      8 N8        -12.4957   -2.3758   58.8041 N.am    1  ZINC000469435497   -0.6600
      9 C9        -13.7542   -2.2891   59.2787 C.2     1  ZINC000469435497    0.5100
     10 O10       -14.6957   -2.3584   58.5172 O.2     1  ZINC000469435497   -0.5200
     11 C11       -13.9915   -2.1058   60.7556 C.3     1  ZINC000469435497    0.1000
     12 N12       -12.8276   -1.4531   61.3600 N.am    1  ZINC000469435497   -0.7200
     13 C13       -12.9675   -0.7456   62.4986 C.2     1  ZINC000469435497    0.5700
     14 O14       -14.0596   -0.6480   63.0232 O.2     1  ZINC000469435497   -0.5300
     15 C15       -11.7924   -0.0883   63.1095 C.ar    1  ZINC000469435497   -0.1400
     16 C16       -11.9538    0.7581   64.2072 C.ar    1  ZINC000469435497   -0.0800
     17 C17       -10.8526    1.3666   64.7704 C.ar    1  ZINC000469435497   -0.1100
     18 C18        -9.5861    1.1431   64.2530 C.ar    1  ZINC000469435497   -0.0700
     19 C19        -8.2418    1.6872   64.6886 C.3     1  ZINC000469435497   -0.0900
     20 C20        -7.1982    0.7568   64.0352 C.3     1  ZINC000469435497   -0.1200
     21 C21        -7.9529    0.2298   62.7965 C.3     1  ZINC000469435497   -0.0800
     22 C22        -9.4196    0.3047   63.1643 C.ar    1  ZINC000469435497   -0.1100
     23 C23       -10.5159   -0.3151   62.5956 C.ar    1  ZINC000469435497   -0.0400
     24 C24       -12.6247   -3.7377   56.8103 C.ar    1  ZINC000469435497   -0.1000
     25 C25       -12.4051   -3.9087   55.4596 C.ar    1  ZINC000469435497   -0.1200
     26 C26       -11.8317   -2.8880   54.7056 C.ar    1  ZINC000469435497    0.1000
     27 O27       -11.5153   -2.8544   53.3810 O.3     1  ZINC000469435497   -0.3000
     28 H28       -13.4261   -0.9758   53.2607 H       1  ZINC000469435497    0.0600
     29 H29       -12.5410    0.1313   52.1842 H       1  ZINC000469435497    0.0800
     30 H30       -13.0211   -1.4810   51.6026 H       1  ZINC000469435497    0.0700
     31 H31       -10.1212   -0.3207   51.6402 H       1  ZINC000469435497    0.0800
     32 H32        -9.3430   -1.7969   52.2596 H       1  ZINC000469435497    0.0700
     33 H33       -10.5927   -1.9121   50.9973 H       1  ZINC000469435497    0.0700
     34 H34        -9.8215   -0.7487   54.3427 H       1  ZINC000469435497    0.0900
     35 H35       -11.3352    0.2161   54.3402 H       1  ZINC000469435497    0.0900
     36 H36       -11.4305   -0.5937   57.1585 H       1  ZINC000469435497    0.1400
     37 H37       -11.7428   -2.3205   59.4131 H       1  ZINC000469435497    0.4200
     38 H38       -14.8752   -1.4861   60.9074 H       1  ZINC000469435497    0.1100
     39 H39       -14.1455   -3.0788   61.2223 H       1  ZINC000469435497    0.1100
     40 H40       -11.9562   -1.5300   60.9408 H       1  ZINC000469435497    0.4100
     41 H41       -12.9383    0.9359   64.6142 H       1  ZINC000469435497    0.1300
     42 H42       -10.9774    2.0220   65.6198 H       1  ZINC000469435497    0.1300
     43 H43        -8.1137    2.7091   64.3315 H       1  ZINC000469435497    0.0900
     44 H44        -8.1532    1.6514   65.7745 H       1  ZINC000469435497    0.0800
     45 H45        -6.3112    1.3169   63.7392 H       1  ZINC000469435497    0.0800
     46 H46        -6.9351   -0.0614   64.7057 H       1  ZINC000469435497    0.0700
     47 H47        -7.7471    0.8605   61.9317 H       1  ZINC000469435497    0.0800
     48 H48        -7.6670   -0.8016   62.5900 H       1  ZINC000469435497    0.0800
     49 H49       -10.3844   -0.9736   61.7495 H       1  ZINC000469435497    0.1400
     50 H50       -13.0702   -4.5343   57.3877 H       1  ZINC000469435497    0.1400
     51 H51       -12.6795   -4.8388   54.9841 H       1  ZINC000469435497    0.1300
@<TRIPOS>BOND
     1     1     2    1
     2     1    28    1
     3     1    29    1
     4     1    30    1
     5     2    27    1
     6     2     3    1
     7     2     4    1
     8     3    31    1
     9     3    32    1
    10     3    33    1
    11     4     5    1
    12     4    34    1
    13     4    35    1
    14     5    26   ar
    15     5     6   ar
    16     6     7   ar
    17     6    36    1
    18     7     8    1
    19     7    24   ar
    20     8     9   am
    21     8    37    1
    22     9    10    2
    23     9    11    1
    24    11    12    1
    25    11    38    1
    26    11    39    1
    27    12    13   am
    28    12    40    1
    29    13    14    2
    30    13    15    1
    31    15    23   ar
    32    15    16   ar
    33    16    17   ar
    34    16    41    1
    35    17    18   ar
    36    17    42    1
    37    18    22   ar
    38    18    19    1
    39    19    20    1
    40    19    43    1
    41    19    44    1
    42    20    21    1
    43    20    45    1
    44    20    46    1
    45    21    22    1
    46    21    47    1
    47    21    48    1
    48    22    23   ar
    49    23    49    1
    50    24    25   ar
    51    24    50    1
    52    25    26   ar
    53    25    51    1
    54    26    27    1
@<TRIPOS>SUBSTRUCTURE
     1 ZINC000469435497        1 TEMP              0 ****  ****    0 ROOT


##########                                Name:    ZINC000550952205
##########                DOCK_Rotatable_Bonds:                   7
##########                         Heavy_Atoms:                  28
##########                    Molecular_Weight:             407.484
##########                DOCK_Rotatable_Bonds:                   7
##########                       Formal_Charge:        -2.68221e-07
##########                     HBond_Acceptors:                   8
##########                        HBond_Donors:                   2
##########                         Heavy_Atoms:                  28
##########                          Grid_Score:          -30.530655
##########                     Grid_vdw_energy:          -28.208954
##########                      Grid_es_energy:           -2.321702
##########           Internal_energy_repulsive:           11.340028

@<TRIPOS>MOLECULE
ZINC000550952205
 51 54 1 0 0
SMALL
USER_CHARGES


@<TRIPOS>ATOM
      1 O1         -6.9268    5.0035   52.9558 O.2     1  ZINC000550952205   -0.5100
      2 C2         -6.2864    3.9999   52.7207 C.2     1  ZINC000550952205    0.5100
      3 N3         -6.5512    2.8595   53.3885 N.am    1  ZINC000550952205   -0.7000
      4 C4         -7.6083    2.8332   54.4025 C.3     1  ZINC000550952205    0.1200
      5 C5         -8.9157    2.3601   53.7640 C.3     1  ZINC000550952205   -0.0900
      6 H6         -9.5445    1.8915   54.5212 H       1  ZINC000550952205    0.1000
      7 C7         -9.6389    3.5349   53.1630 C.3     1  ZINC000550952205   -0.1300
      8 C8        -11.1703    3.3964   53.2590 C.3     1  ZINC000550952205   -0.1200
      9 C9        -11.6623    1.9709   52.9439 C.3     1  ZINC000550952205   -0.1300
     10 C10       -10.9428    1.3592   51.7725 C.3     1  ZINC000550952205   -0.1500
     11 C11        -9.7599    0.5249   52.3052 C.3     1  ZINC000550952205    0.3000
     12 F12       -10.1724   -0.1666   53.4492 F       1  ZINC000550952205   -0.2000
     13 F13        -9.3826   -0.4019   51.3275 F       1  ZINC000550952205   -0.2000
     14 C14        -8.6080    1.3442   52.6450 C.3     1  ZINC000550952205   -0.1700
     15 C15        -5.2089    4.0267   51.6872 C.2     1  ZINC000550952205    0.5100
     16 O16        -5.0965    4.9863   50.9523 O.2     1  ZINC000550952205   -0.4900
     17 N17        -4.3611    2.9855   51.5704 N.am    1  ZINC000550952205   -0.6400
     18 C18        -3.3524    3.0107   50.6029 C.ar    1  ZINC000550952205    0.1500
     19 C19        -2.4459    4.0690   50.5670 C.ar    1  ZINC000550952205   -0.1200
     20 C20        -1.4587    4.1068   49.6309 C.ar    1  ZINC000550952205   -0.0400
     21 C21        -1.3347    3.0745   48.6787 C.ar    1  ZINC000550952205    0.0800
     22 N22        -0.4391    2.9278   47.6832 N.2     1  ZINC000550952205   -0.4700
     23 C23        -0.5345    1.8900   46.9417 C.2     1  ZINC000550952205    0.1200
     24 C24         0.3888    1.5827   45.7910 C.3     1  ZINC000550952205   -0.1100
     25 C25        -0.2327    1.4681   44.3976 C.3     1  ZINC000550952205   -0.1500
     26 C26         0.6205    2.6862   44.7569 C.3     1  ZINC000550952205   -0.1500
     27 S27        -1.8373    0.8965   47.4187 S.3     1  ZINC000550952205    0.1200
     28 C28        -2.2462    2.0128   48.7177 C.ar    1  ZINC000550952205   -0.1700
     29 C29        -3.2489    1.9821   49.6831 C.ar    1  ZINC000550952205   -0.0700
     30 H30        -6.0419    2.0563   53.1979 H       1  ZINC000550952205    0.4200
     31 H31        -7.3268    2.1493   55.2032 H       1  ZINC000550952205    0.0800
     32 H32        -7.7449    3.8344   54.8110 H       1  ZINC000550952205    0.0800
     33 H33        -9.3333    4.4417   53.6849 H       1  ZINC000550952205    0.0700
     34 H34        -9.3578    3.6227   52.1135 H       1  ZINC000550952205    0.0700
     35 H35       -11.4846    3.6617   54.2685 H       1  ZINC000550952205    0.0700
     36 H36       -11.6308    4.0906   52.5560 H       1  ZINC000550952205    0.0700
     37 H37       -11.5066    1.3422   53.8207 H       1  ZINC000550952205    0.0800
     38 H38       -12.7291    2.0068   52.7230 H       1  ZINC000550952205    0.0700
     39 H39       -11.6258    0.7146   51.2193 H       1  ZINC000550952205    0.0900
     40 H40       -10.5697    2.1482   51.1194 H       1  ZINC000550952205    0.1000
     41 H41        -8.2891    1.8905   51.7573 H       1  ZINC000550952205    0.1000
     42 H42        -7.7950    0.6936   52.9677 H       1  ZINC000550952205    0.1000
     43 H43        -4.4508    2.2188   52.1577 H       1  ZINC000550952205    0.4300
     44 H44        -2.5279    4.8676   51.2894 H       1  ZINC000550952205    0.1400
     45 H45        -0.7651    4.9344   49.6172 H       1  ZINC000550952205    0.1400
     46 H46         1.2278    0.9268   46.0237 H       1  ZINC000550952205    0.1300
     47 H47         0.1972    0.7366   43.7133 H       1  ZINC000550952205    0.1000
     48 H48        -1.3094    1.6150   44.3132 H       1  ZINC000550952205    0.1100
     49 H49         0.1052    3.6346   44.9088 H       1  ZINC000550952205    0.1000
     50 H50         1.6118    2.7562   44.3089 H       1  ZINC000550952205    0.1100
     51 H51        -3.9463    1.1580   49.7124 H       1  ZINC000550952205    0.1400
@<TRIPOS>BOND
     1     1     2    2
     2     2     3   am
     3     2    15    1
     4     3     4    1
     5     3    30    1
     6     4     5    1
     7     4    31    1
     8     4    32    1
     9     5     6    1
    10     5    14    1
    11     5     7    1
    12     7     8    1
    13     7    33    1
    14     7    34    1
    15     8     9    1
    16     8    35    1
    17     8    36    1
    18     9    10    1
    19     9    37    1
    20     9    38    1
    21    10    11    1
    22    10    39    1
    23    10    40    1
    24    11    12    1
    25    11    13    1
    26    11    14    1
    27    14    41    1
    28    14    42    1
    29    15    16    2
    30    15    17   am
    31    17    18    1
    32    17    43    1
    33    18    29   ar
    34    18    19   ar
    35    19    20   ar
    36    19    44    1
    37    20    21   ar
    38    20    45    1
    39    21    28   ar
    40    21    22    1
    41    22    23    2
    42    23    24    1
    43    23    27    1
    44    24    26    1
    45    24    25    1
    46    24    46    1
    47    25    26    1
    48    25    47    1
    49    25    48    1
    50    26    49    1
    51    26    50    1
    52    27    28    1
    53    28    29   ar
    54    29    51    1
@<TRIPOS>SUBSTRUCTURE
     1 ZINC000550952205        1 TEMP              0 ****  ****    0 ROOT


##########                                Name:    ZINC001085711660
##########                DOCK_Rotatable_Bonds:                   8
##########                         Heavy_Atoms:                  25
##########                    Molecular_Weight:             347.414
##########                DOCK_Rotatable_Bonds:                   8
##########                       Formal_Charge:         -0.00999993
##########                     HBond_Acceptors:                   7
##########                        HBond_Donors:                   0
##########                         Heavy_Atoms:                  25
##########                          Grid_Score:          -30.525370
##########                     Grid_vdw_energy:          -28.935287
##########                      Grid_es_energy:           -1.590083
##########           Internal_energy_repulsive:           12.731231

@<TRIPOS>MOLECULE
ZINC001085711660
 50 52 1 0 0
SMALL
USER_CHARGES


@<TRIPOS>ATOM
      1 C1          3.3777   -0.7747   39.3975 C.3     1  ZINC001085711660    0.0300
      2 O2          2.6618   -0.2505   40.5175 O.3     1  ZINC001085711660   -0.3800
      3 C3          3.1178    1.0330   40.9499 C.3     1  ZINC001085711660    0.1400
      4 C4          2.2974    1.4864   42.1298 C.2     1  ZINC001085711660    0.0100
      5 C5          1.1556    2.2062   42.0644 C.2     1  ZINC001085711660   -0.1900
      6 C6          0.7198    2.4104   43.3830 C.2     1  ZINC001085711660   -0.1200
      7 C7          1.6292    1.7973   44.1963 C.2     1  ZINC001085711660   -0.0700
      8 C8          1.5813    1.7505   45.6613 C.2     1  ZINC001085711660    0.6000
      9 O9          1.5564    0.6778   46.2355 O.2     1  ZINC001085711660   -0.5200
     10 N10         1.5648    2.8957   46.3719 N.am    1  ZINC001085711660   -0.6000
     11 C11         1.5947    4.1871   45.6808 C.3     1  ZINC001085711660    0.0700
     12 C12         1.5169    2.8490   47.8355 C.3     1  ZINC001085711660    0.1300
     13 C13         0.4181    3.7865   48.3398 C.3     1  ZINC001085711660    0.0000
     14 H14        -0.2078    4.1733   47.5356 H       1  ZINC001085711660    0.1000
     15 C15         0.9326    4.8753   49.2919 C.3     1  ZINC001085711660   -0.1400
     16 C16        -0.3764    4.5947   50.0433 C.3     1  ZINC001085711660    0.0100
     17 N17        -0.3520    3.2347   49.4701 N.3     1  ZINC001085711660   -0.4500
     18 C18        -1.6945    2.8199   49.0418 C.3     1  ZINC001085711660    0.1500
     19 H19        -2.0921    3.5489   48.3357 H       1  ZINC001085711660    0.1000
     20 C20        -2.6155    2.7356   50.2608 C.3     1  ZINC001085711660   -0.1900
     21 C21        -1.6151    1.4693   48.3780 C.2     1  ZINC001085711660    0.2000
     22 N22        -1.8187    1.2324   47.1134 N.2     1  ZINC001085711660   -0.4700
     23 C23        -1.6600   -0.0843   46.8905 C.2     1  ZINC001085711660   -0.0400
     24 C24        -1.3496   -0.6618   48.0628 C.2     1  ZINC001085711660   -0.0500
     25 C25        -1.0814   -2.1264   48.2961 C.3     1  ZINC001085711660   -0.0700
     26 O26        -1.3177    0.3154   48.9901 O.3     1  ZINC001085711660   -0.2000
     27 O27         2.5766    1.2375   43.4159 O.3     1  ZINC001085711660   -0.1500
     28 H28         3.2762   -0.0955   38.5511 H       1  ZINC001085711660    0.0500
     29 H29         4.4317   -0.8781   39.6560 H       1  ZINC001085711660    0.0500
     30 H30         2.9717   -1.7505   39.1310 H       1  ZINC001085711660    0.0900
     31 H31         4.1663    0.9673   41.2401 H       1  ZINC001085711660    0.0900
     32 H32         3.0104    1.7499   40.1358 H       1  ZINC001085711660    0.0700
     33 H33         0.6697    2.5581   41.1664 H       1  ZINC001085711660    0.1600
     34 H34        -0.1635    2.9484   43.6940 H       1  ZINC001085711660    0.1600
     35 H35         0.5839    4.4612   45.3790 H       1  ZINC001085711660    0.0600
     36 H36         1.9928    4.9487   46.3512 H       1  ZINC001085711660    0.0900
     37 H37         2.2298    4.1121   44.7981 H       1  ZINC001085711660    0.0800
     38 H38         1.3028    1.8306   48.1596 H       1  ZINC001085711660    0.0900
     39 H39         2.4783    3.1648   48.2407 H       1  ZINC001085711660    0.0900
     40 H40         1.8315    4.5983   49.8425 H       1  ZINC001085711660    0.1000
     41 H41         0.9872    5.8686   48.8463 H       1  ZINC001085711660    0.0800
     42 H42        -0.2668    4.6115   51.1276 H       1  ZINC001085711660    0.0900
     43 H43        -1.2151    5.1969   49.6943 H       1  ZINC001085711660    0.0800
     44 H44        -2.1634    2.0902   51.0137 H       1  ZINC001085711660    0.0800
     45 H45        -2.7602    3.7328   50.6764 H       1  ZINC001085711660    0.0800
     46 H46        -3.5790    2.3239   49.9603 H       1  ZINC001085711660    0.0700
     47 H47        -1.7638   -0.5868   45.9401 H       1  ZINC001085711660    0.1800
     48 H48        -0.0183   -2.3268   48.1628 H       1  ZINC001085711660    0.0800
     49 H49        -1.3769   -2.3928   49.3108 H       1  ZINC001085711660    0.0800
     50 H50        -1.6550   -2.7187   47.5833 H       1  ZINC001085711660    0.0900
@<TRIPOS>BOND
     1     1     2    1
     2     1    28    1
     3     1    29    1
     4     1    30    1
     5     2     3    1
     6     3     4    1
     7     3    31    1
     8     3    32    1
     9     4    27    1
    10     4     5    2
    11     5     6    1
    12     5    33    1
    13     6     7    2
    14     6    34    1
    15     7     8    1
    16     7    27    1
    17     8     9    2
    18     8    10   am
    19    10    11    1
    20    10    12    1
    21    11    35    1
    22    11    36    1
    23    11    37    1
    24    12    13    1
    25    12    38    1
    26    12    39    1
    27    13    14    1
    28    13    17    1
    29    13    15    1
    30    15    16    1
    31    15    40    1
    32    15    41    1
    33    16    17    1
    34    16    42    1
    35    16    43    1
    36    17    18    1
    37    18    19    1
    38    18    20    1
    39    18    21    1
    40    20    44    1
    41    20    45    1
    42    20    46    1
    43    21    26    1
    44    21    22    2
    45    22    23    1
    46    23    24    2
    47    23    47    1
    48    24    25    1
    49    24    26    1
    50    25    48    1
    51    25    49    1
    52    25    50    1
@<TRIPOS>SUBSTRUCTURE
     1 ZINC001085711660        1 TEMP              0 ****  ****    0 ROOT


##########                                Name:    ZINC000504638019
##########                DOCK_Rotatable_Bonds:                   8
##########                         Heavy_Atoms:                  24
##########                    Molecular_Weight:             328.454
##########                DOCK_Rotatable_Bonds:                   8
##########                       Formal_Charge:        -1.49012e-08
##########                     HBond_Acceptors:                   4
##########                        HBond_Donors:                   1
##########                         Heavy_Atoms:                  24
##########                          Grid_Score:          -30.518896
##########                     Grid_vdw_energy:          -28.926956
##########                      Grid_es_energy:           -1.591941
##########           Internal_energy_repulsive:           27.091949

@<TRIPOS>MOLECULE
ZINC000504638019
 52 53 1 0 0
SMALL
USER_CHARGES


@<TRIPOS>ATOM
      1 C1         -6.7631    2.2759   57.1559 C.3     1  ZINC000504638019   -0.1200
      2 C2         -6.2901    2.7524   55.8066 C.ar    1  ZINC000504638019   -0.0900
      3 C3         -5.1506    3.5287   55.7082 C.ar    1  ZINC000504638019   -0.1200
      4 C4         -4.7167    3.9657   54.4707 C.ar    1  ZINC000504638019   -0.1100
      5 C5         -5.4223    3.6261   53.3314 C.ar    1  ZINC000504638019   -0.0900
      6 C6         -4.9496    4.1030   51.9823 C.3     1  ZINC000504638019   -0.0600
      7 H7         -5.5570    3.6450   51.2017 H       1  ZINC000504638019    0.0900
      8 C8         -5.0820    5.6254   51.9043 C.3     1  ZINC000504638019   -0.1500
      9 C9         -3.4845    3.7079   51.7863 C.3     1  ZINC000504638019    0.1300
     10 N10        -3.3393    2.9827   50.5217 N.am    1  ZINC000504638019   -0.7000
     11 C11        -2.1110    2.7013   50.0435 C.2     1  ZINC000504638019    0.5100
     12 O12        -1.1255    3.0475   50.6610 O.2     1  ZINC000504638019   -0.5100
     13 C13        -1.9628    1.9631   48.7525 C.2     1  ZINC000504638019    0.5100
     14 O14        -2.3777    0.8272   48.6520 O.2     1  ZINC000504638019   -0.5200
     15 N15        -1.3684    2.5590   47.6998 N.am    1  ZINC000504638019   -0.5800
     16 C16        -0.8676    3.9304   47.8211 C.3     1  ZINC000504638019    0.0600
     17 C17        -1.2232    1.8353   46.4344 C.3     1  ZINC000504638019    0.1100
     18 C18         0.1495    1.1612   46.3870 C.3     1  ZINC000504638019   -0.1000
     19 H19         0.2629    0.6269   45.4438 H       1  ZINC000504638019    0.0800
     20 C20         0.2809    0.1794   47.5534 C.3     1  ZINC000504638019   -0.0800
     21 C21         1.7013   -0.2888   47.6774 C.2     1  ZINC000504638019   -0.1500
     22 C22         2.7119    0.3084   47.1321 C.2     1  ZINC000504638019   -0.1600
     23 C23         2.6036    1.5467   46.2914 C.3     1  ZINC000504638019   -0.0900
     24 C24         1.2498    2.2224   46.5141 C.3     1  ZINC000504638019   -0.1100
     25 C25        -6.5611    2.8487   53.4297 C.ar    1  ZINC000504638019   -0.1100
     26 C26        -6.9927    2.4085   54.6670 C.ar    1  ZINC000504638019   -0.1200
     27 H27        -6.3034    1.3141   57.3832 H       1  ZINC000504638019    0.0700
     28 H28        -6.4803    3.0028   57.9175 H       1  ZINC000504638019    0.0700
     29 H29        -7.8474    2.1665   57.1430 H       1  ZINC000504638019    0.0700
     30 H30        -4.5994    3.7940   56.5983 H       1  ZINC000504638019    0.1200
     31 H31        -3.8268    4.5728   54.3938 H       1  ZINC000504638019    0.1200
     32 H32        -4.7400    5.9702   50.9285 H       1  ZINC000504638019    0.0600
     33 H33        -6.1257    5.9068   52.0439 H       1  ZINC000504638019    0.0600
     34 H34        -4.4746    6.0833   52.6849 H       1  ZINC000504638019    0.0600
     35 H35        -2.8661    4.6051   51.7637 H       1  ZINC000504638019    0.0800
     36 H36        -3.1673    3.0686   52.6103 H       1  ZINC000504638019    0.0800
     37 H37        -4.1271    2.7049   50.0287 H       1  ZINC000504638019    0.4100
     38 H38         0.1290    3.9156   48.2622 H       1  ZINC000504638019    0.0600
     39 H39        -0.8210    4.3889   46.8333 H       1  ZINC000504638019    0.0700
     40 H40        -1.5382    4.5071   48.4581 H       1  ZINC000504638019    0.1100
     41 H41        -2.0029    1.0776   46.3575 H       1  ZINC000504638019    0.0900
     42 H42        -1.3132    2.5349   45.6034 H       1  ZINC000504638019    0.0900
     43 H43        -0.0185    0.6740   48.4775 H       1  ZINC000504638019    0.0800
     44 H44        -0.3684   -0.6784   47.3784 H       1  ZINC000504638019    0.0600
     45 H45         1.8920   -1.1793   48.2579 H       1  ZINC000504638019    0.1000
     46 H46         3.6945   -0.1104   47.2925 H       1  ZINC000504638019    0.1000
     47 H47         3.4021    2.2378   46.5614 H       1  ZINC000504638019    0.0700
     48 H48         2.7008    1.2789   45.2394 H       1  ZINC000504638019    0.0700
     49 H49         1.1021    3.0019   45.7666 H       1  ZINC000504638019    0.0700
     50 H50         1.2173    2.6575   47.5130 H       1  ZINC000504638019    0.0700
     51 H51        -7.1121    2.5830   52.5396 H       1  ZINC000504638019    0.1200
     52 H52        -7.8824    1.8011   54.7437 H       1  ZINC000504638019    0.1200
@<TRIPOS>BOND
     1     1     2    1
     2     1    27    1
     3     1    28    1
     4     1    29    1
     5     2    26   ar
     6     2     3   ar
     7     3     4   ar
     8     3    30    1
     9     4     5   ar
    10     4    31    1
    11     5     6    1
    12     5    25   ar
    13     6     7    1
    14     6     8    1
    15     6     9    1
    16     8    32    1
    17     8    33    1
    18     8    34    1
    19     9    10    1
    20     9    35    1
    21     9    36    1
    22    10    11   am
    23    10    37    1
    24    11    12    2
    25    11    13    1
    26    13    14    2
    27    13    15   am
    28    15    16    1
    29    15    17    1
    30    16    38    1
    31    16    39    1
    32    16    40    1
    33    17    18    1
    34    17    41    1
    35    17    42    1
    36    18    19    1
    37    18    24    1
    38    18    20    1
    39    20    21    1
    40    20    43    1
    41    20    44    1
    42    21    22    2
    43    21    45    1
    44    22    23    1
    45    22    46    1
    46    23    24    1
    47    23    47    1
    48    23    48    1
    49    24    49    1
    50    24    50    1
    51    25    26   ar
    52    25    51    1
    53    26    52    1
@<TRIPOS>SUBSTRUCTURE
     1 ZINC000504638019        1 TEMP              0 ****  ****    0 ROOT


##########                                Name:    ZINC000000992968
##########                DOCK_Rotatable_Bonds:                   8
##########                         Heavy_Atoms:                  27
##########                    Molecular_Weight:             384.772
##########                DOCK_Rotatable_Bonds:                   8
##########                       Formal_Charge:           0.0199999
##########                     HBond_Acceptors:                   7
##########                        HBond_Donors:                   0
##########                         Heavy_Atoms:                  27
##########                          Grid_Score:          -30.509623
##########                     Grid_vdw_energy:          -29.584444
##########                      Grid_es_energy:           -0.925178
##########           Internal_energy_repulsive:            7.573862

@<TRIPOS>MOLECULE
ZINC000000992968
 40 42 1 0 0
SMALL
USER_CHARGES


@<TRIPOS>ATOM
      1 O1         -7.5501    1.1470   57.0180 O.2     1  ZINC000000992968   -0.4600
      2 C2         -7.3272    1.9351   57.9171 C.2     1  ZINC000000992968    0.5600
      3 O3         -6.6529    3.0760   57.6628 O.3     1  ZINC000000992968   -0.2900
      4 C4         -6.2038    3.2822   56.3990 C.ar    1  ZINC000000992968    0.1200
      5 C5         -7.1042    3.5922   55.3856 C.ar    1  ZINC000000992968   -0.1300
      6 C6         -6.6539    3.8019   54.1023 C.ar    1  ZINC000000992968   -0.0400
      7 C7         -5.2865    3.7031   53.8177 C.ar    1  ZINC000000992968   -0.1600
      8 C8         -4.8004    3.9265   52.4497 C.2     1  ZINC000000992968    0.4000
      9 O9         -5.5597    4.3308   51.5947 O.2     1  ZINC000000992968   -0.4200
     10 C10        -3.3581    3.6533   52.1085 C.3     1  ZINC000000992968    0.0200
     11 O11        -3.2676    3.1649   50.7441 O.3     1  ZINC000000992968   -0.3300
     12 C12        -2.0422    2.8331   50.2932 C.2     1  ZINC000000992968    0.5100
     13 O13        -1.0800    2.9197   51.0297 O.2     1  ZINC000000992968   -0.5000
     14 C14        -1.8687    2.3642   48.9038 C.ar    1  ZINC000000992968   -0.1300
     15 C15        -1.0755    3.0903   48.0126 C.ar    1  ZINC000000992968   -0.0500
     16 C16        -0.9170    2.6469   46.7166 C.ar    1  ZINC000000992968   -0.1200
     17 C17        -1.5430    1.4843   46.2979 C.ar    1  ZINC000000992968    0.0000
     18 Cl18       -1.3390    0.9330   44.6645 Cl      1  ZINC000000992968   -0.0500
     19 C19        -2.3306    0.7595   47.1772 C.ar    1  ZINC000000992968   -0.1200
     20 C20        -2.4925    1.1896   48.4772 C.ar    1  ZINC000000992968   -0.0400
     21 C21        -4.3840    3.3912   54.8418 C.ar    1  ZINC000000992968   -0.0600
     22 C22        -4.8440    3.1885   56.1229 C.ar    1  ZINC000000992968   -0.1200
     23 C23        -7.7959    1.6488   59.2747 C.2     1  ZINC000000992968   -0.0700
     24 C24        -8.4378    0.5123   59.6798 C.2     1  ZINC000000992968   -0.0900
     25 C25        -8.7003    0.6640   61.0497 C.2     1  ZINC000000992968   -0.2300
     26 C26        -8.2139    1.8706   61.4170 C.2     1  ZINC000000992968    0.0200
     27 O27        -7.6648    2.4582   60.3463 O.3     1  ZINC000000992968   -0.1500
     28 H28        -8.1587    3.6682   55.6061 H       1  ZINC000000992968    0.1400
     29 H29        -7.3541    4.0420   53.3158 H       1  ZINC000000992968    0.1500
     30 H30        -2.7816    4.5733   52.2040 H       1  ZINC000000992968    0.1100
     31 H31        -2.9595    2.9022   52.7904 H       1  ZINC000000992968    0.1100
     32 H32        -0.5876    3.9972   48.3378 H       1  ZINC000000992968    0.1500
     33 H33        -0.3039    3.2075   46.0265 H       1  ZINC000000992968    0.1500
     34 H34        -2.8157   -0.1463   46.8449 H       1  ZINC000000992968    0.1500
     35 H35        -3.1066    0.6235   49.1619 H       1  ZINC000000992968    0.1500
     36 H36        -3.3283    3.3135   54.6275 H       1  ZINC000000992968    0.1400
     37 H37        -4.1488    2.9482   56.9136 H       1  ZINC000000992968    0.1400
     38 H38        -8.6934   -0.3378   59.0648 H       1  ZINC000000992968    0.1700
     39 H39        -9.1976   -0.0492   61.6903 H       1  ZINC000000992968    0.1700
     40 H40        -8.2575    2.2899   62.4113 H       1  ZINC000000992968    0.2200
@<TRIPOS>BOND
     1     1     2    2
     2     2     3    1
     3     2    23    1
     4     3     4    1
     5     4    22   ar
     6     4     5   ar
     7     5     6   ar
     8     5    28    1
     9     6     7   ar
    10     6    29    1
    11     7     8    1
    12     7    21   ar
    13     8     9    2
    14     8    10    1
    15    10    11    1
    16    10    30    1
    17    10    31    1
    18    11    12    1
    19    12    13    2
    20    12    14    1
    21    14    20   ar
    22    14    15   ar
    23    15    16   ar
    24    15    32    1
    25    16    17   ar
    26    16    33    1
    27    17    18    1
    28    17    19   ar
    29    19    20   ar
    30    19    34    1
    31    20    35    1
    32    21    22   ar
    33    21    36    1
    34    22    37    1
    35    23    27    1
    36    23    24    2
    37    24    25    1
    38    24    38    1
    39    25    26    2
    40    25    39    1
    41    26    27    1
    42    26    40    1
@<TRIPOS>SUBSTRUCTURE
     1 ZINC000000992968        1 TEMP              0 ****  ****    0 ROOT


##########                                Name:    ZINC000540473851
##########                DOCK_Rotatable_Bonds:                   5
##########                         Heavy_Atoms:                  29
##########                    Molecular_Weight:             411.503
##########                DOCK_Rotatable_Bonds:                   5
##########                       Formal_Charge:           0.0200001
##########                     HBond_Acceptors:                   8
##########                        HBond_Donors:                   0
##########                         Heavy_Atoms:                  29
##########                          Grid_Score:          -30.508022
##########                     Grid_vdw_energy:          -28.689892
##########                      Grid_es_energy:           -1.818131
##########           Internal_energy_repulsive:           26.457458

@<TRIPOS>MOLECULE
ZINC000540473851
 51 54 1 0 0
SMALL
USER_CHARGES


@<TRIPOS>ATOM
      1 C1        -13.5578    0.9771   60.9425 C.3     1  ZINC000540473851   -0.0800
      2 C2        -12.3965    0.2251   61.5400 C.2     1  ZINC000540473851    0.1500
      3 C3        -12.3036   -1.1412   61.5206 C.2     1  ZINC000540473851   -0.3100
      4 C4        -13.2818   -2.0672   60.9369 C.2     1  ZINC000540473851    0.6000
      5 O5        -14.1623   -2.5393   61.6315 O.2     1  ZINC000540473851   -0.5100
      6 N6        -13.2046   -2.3943   59.6318 N.am    1  ZINC000540473851   -0.6100
      7 C7        -14.1778   -3.3154   59.0255 C.3     1  ZINC000540473851    0.1000
      8 C8        -14.7465   -2.6601   57.7624 C.3     1  ZINC000540473851    0.0400
      9 N9        -13.6407   -2.2578   56.8829 N.3     1  ZINC000540473851   -0.5300
     10 C10       -14.1445   -1.7825   55.5875 C.3     1  ZINC000540473851    0.1200
     11 H11       -14.4668   -0.7454   55.6813 H       1  ZINC000540473851    0.0500
     12 C12       -15.3294   -2.6474   55.1527 C.3     1  ZINC000540473851   -0.1400
     13 C13       -13.0489   -1.8769   54.5571 C.ar    1  ZINC000540473851   -0.0500
     14 C14       -12.1162   -2.8942   54.6317 C.ar    1  ZINC000540473851   -0.1000
     15 C15       -11.1104   -2.9822   53.6871 C.ar    1  ZINC000540473851   -0.0900
     16 C16       -11.0365   -2.0527   52.6672 C.ar    1  ZINC000540473851   -0.1500
     17 C17       -11.9707   -1.0333   52.5912 C.ar    1  ZINC000540473851    0.1000
     18 F18       -11.8995   -0.1241   51.5946 F       1  ZINC000540473851   -0.1400
     19 C19       -12.9805   -0.9494   53.5346 C.ar    1  ZINC000540473851   -0.1500
     20 C20       -12.7934   -1.2426   57.5228 C.3     1  ZINC000540473851    0.0400
     21 C21       -12.1482   -1.8350   58.7747 C.3     1  ZINC000540473851    0.1200
     22 S22       -10.7992   -1.5881   62.3217 S.3     1  ZINC000540473851    0.2800
     23 C23       -10.4443    0.0605   62.6007 C.2     1  ZINC000540473851    0.0800
     24 C24        -9.2327    0.5575   63.2893 C.ar    1  ZINC000540473851    0.3800
     25 N25        -9.0622    1.8650   63.4375 N.ar    1  ZINC000540473851   -0.5100
     26 C26        -7.9914    2.3415   64.0476 C.ar    1  ZINC000540473851    0.1600
     27 C27        -7.0402    1.4568   64.5352 C.ar    1  ZINC000540473851   -0.2100
     28 C28        -7.2498    0.0960   64.3633 C.ar    1  ZINC000540473851    0.1500
     29 N29        -8.3449   -0.3150   63.7488 N.ar    1  ZINC000540473851   -0.4700
     30 N30       -11.3869    0.8184   62.1170 N.2     1  ZINC000540473851   -0.4300
     31 H31       -13.3467    1.2005   59.8967 H       1  ZINC000540473851    0.0900
     32 H32       -14.4586    0.3670   61.0090 H       1  ZINC000540473851    0.0800
     33 H33       -13.7081    1.9078   61.4897 H       1  ZINC000540473851    0.0800
     34 H34       -13.6825   -4.2499   58.7618 H       1  ZINC000540473851    0.0900
     35 H35       -14.9849   -3.5118   59.7312 H       1  ZINC000540473851    0.0900
     36 H36       -15.3862   -3.3716   57.2400 H       1  ZINC000540473851    0.1000
     37 H37       -15.3292   -1.7815   58.0392 H       1  ZINC000540473851    0.0400
     38 H38       -15.0072   -3.6844   55.0589 H       1  ZINC000540473851    0.0700
     39 H39       -16.1219   -2.5791   55.8980 H       1  ZINC000540473851    0.0600
     40 H40       -15.7033   -2.2947   54.1915 H       1  ZINC000540473851    0.0600
     41 H41       -12.1729   -3.6210   55.4287 H       1  ZINC000540473851    0.1400
     42 H42       -10.3819   -3.7773   53.7465 H       1  ZINC000540473851    0.1300
     43 H43       -10.2504   -2.1212   51.9299 H       1  ZINC000540473851    0.1300
     44 H44       -13.7097   -0.1550   53.4761 H       1  ZINC000540473851    0.1300
     45 H45       -12.0165   -0.9261   56.8268 H       1  ZINC000540473851    0.1000
     46 H46       -13.4033   -0.3838   57.8030 H       1  ZINC000540473851    0.0400
     47 H47       -11.6116   -1.0547   59.3142 H       1  ZINC000540473851    0.1000
     48 H48       -11.4575   -2.6286   58.4900 H       1  ZINC000540473851    0.0800
     49 H49        -7.8579    3.4068   64.1649 H       1  ZINC000540473851    0.1800
     50 H50        -6.1556    1.8196   65.0375 H       1  ZINC000540473851    0.1600
     51 H51        -6.5286   -0.6187   64.7312 H       1  ZINC000540473851    0.1800
@<TRIPOS>BOND
     1     1     2    1
     2     1    31    1
     3     1    32    1
     4     1    33    1
     5     2    30    1
     6     2     3    2
     7     3     4    1
     8     3    22    1
     9     4     5    2
    10     4     6   am
    11     6    21    1
    12     6     7    1
    13     7     8    1
    14     7    34    1
    15     7    35    1
    16     8     9    1
    17     8    36    1
    18     8    37    1
    19     9    10    1
    20     9    20    1
    21    10    11    1
    22    10    12    1
    23    10    13    1
    24    12    38    1
    25    12    39    1
    26    12    40    1
    27    13    19   ar
    28    13    14   ar
    29    14    15   ar
    30    14    41    1
    31    15    16   ar
    32    15    42    1
    33    16    17   ar
    34    16    43    1
    35    17    18    1
    36    17    19   ar
    37    19    44    1
    38    20    21    1
    39    20    45    1
    40    20    46    1
    41    21    47    1
    42    21    48    1
    43    22    23    1
    44    23    24    1
    45    23    30    2
    46    24    29   ar
    47    24    25   ar
    48    25    26   ar
    49    26    27   ar
    50    26    49    1
    51    27    28   ar
    52    27    50    1
    53    28    29   ar
    54    28    51    1
@<TRIPOS>SUBSTRUCTURE
     1 ZINC000540473851        1 TEMP              0 ****  ****    0 ROOT


##########                                Name:    ZINC000191003171
##########                DOCK_Rotatable_Bonds:                   6
##########                         Heavy_Atoms:                  26
##########                    Molecular_Weight:             389.414
##########                DOCK_Rotatable_Bonds:                   6
##########                       Formal_Charge:          -0.0200002
##########                     HBond_Acceptors:                   8
##########                        HBond_Donors:                   1
##########                         Heavy_Atoms:                  26
##########                          Grid_Score:          -30.491982
##########                     Grid_vdw_energy:          -29.217155
##########                      Grid_es_energy:           -1.274826
##########           Internal_energy_repulsive:           16.835310

@<TRIPOS>MOLECULE
ZINC000191003171
 45 46 1 0 0
SMALL
USER_CHARGES


@<TRIPOS>ATOM
      1 C1          0.4076    3.1900   49.2331 C.3     1  ZINC000191003171   -0.1200
      2 C2         -0.7338    3.3124   50.2095 C.ar    1  ZINC000191003171   -0.0800
      3 C3         -0.5622    4.0119   51.3890 C.ar    1  ZINC000191003171   -0.0700
      4 C4         -1.6095    4.1241   52.2847 C.ar    1  ZINC000191003171   -0.1800
      5 C5         -1.4222    4.8865   53.5711 C.3     1  ZINC000191003171    0.5100
      6 F6         -2.6432    5.4451   53.9642 F       1  ZINC000191003171   -0.1800
      7 F7         -0.9655    4.0163   54.5666 F       1  ZINC000191003171   -0.1800
      8 F8         -0.4841    5.9061   53.3766 F       1  ZINC000191003171   -0.1800
      9 C9         -2.8281    3.5375   52.0002 C.ar    1  ZINC000191003171   -0.0800
     10 C10        -2.9999    2.8381   50.8201 C.ar    1  ZINC000191003171   -0.1000
     11 C11        -1.9543    2.7295   49.9226 C.ar    1  ZINC000191003171   -0.0500
     12 C12        -2.1415    1.9672   48.6362 C.3     1  ZINC000191003171    0.0900
     13 N13        -1.7805    0.5586   48.8448 N.3     1  ZINC000191003171   -0.6800
     14 C14        -1.8813   -0.2018   47.5920 C.3     1  ZINC000191003171    0.1200
     15 H15        -2.8830   -0.0880   47.1774 H       1  ZINC000191003171    0.0600
     16 C16        -1.6099   -1.6816   47.8704 C.3     1  ZINC000191003171   -0.1400
     17 C17        -0.8675    0.3180   46.6058 C.ar    1  ZINC000191003171   -0.0100
     18 C18        -1.2873    0.8825   45.4159 C.ar    1  ZINC000191003171   -0.1300
     19 C19        -0.3582    1.3599   44.5101 C.ar    1  ZINC000191003171    0.0100
     20 C20         0.9914    1.2731   44.7934 C.ar    1  ZINC000191003171   -0.7000
     21 S21         2.1752    1.8817   43.6387 S.o2    1  ZINC000191003171    2.5000
     22 C22         1.2370    3.0255   42.5889 C.3     1  ZINC000191003171   -0.6500
     23 O23         3.1111    2.5920   44.4379 O.2     1  ZINC000191003171   -0.9300
     24 O24         2.5662    0.7330   42.8994 O.2     1  ZINC000191003171   -0.9300
     25 C25         1.4133    0.7083   45.9853 C.ar    1  ZINC000191003171    0.1900
     26 F26         2.7326    0.6229   46.2633 F       1  ZINC000191003171   -0.1200
     27 C27         0.4819    0.2354   46.8938 C.ar    1  ZINC000191003171   -0.1700
     28 H28         0.3787    4.0256   48.5338 H       1  ZINC000191003171    0.0800
     29 H29         1.3529    3.2029   49.7757 H       1  ZINC000191003171    0.0800
     30 H30         0.3169    2.2530   48.6836 H       1  ZINC000191003171    0.0600
     31 H31         0.3899    4.4706   51.6112 H       1  ZINC000191003171    0.1400
     32 H32        -3.6461    3.6251   52.6998 H       1  ZINC000191003171    0.1400
     33 H33        -3.9521    2.3794   50.5978 H       1  ZINC000191003171    0.1400
     34 H34        -3.1836    2.0327   48.3234 H       1  ZINC000191003171    0.0900
     35 H35        -1.5027    2.3954   47.8638 H       1  ZINC000191003171    0.0500
     36 H36        -0.8574    0.4772   49.2439 H       1  ZINC000191003171    0.3500
     37 H37        -1.6847   -2.2459   46.9408 H       1  ZINC000191003171    0.0600
     38 H38        -0.6082   -1.7955   48.2849 H       1  ZINC000191003171    0.0700
     39 H39        -2.3433   -2.0576   48.5837 H       1  ZINC000191003171    0.0600
     40 H40        -2.3420    0.9504   45.1935 H       1  ZINC000191003171    0.1500
     41 H41        -0.6874    1.8005   43.5806 H       1  ZINC000191003171    0.1600
     42 H42         0.8201    3.8236   43.2033 H       1  ZINC000191003171    0.1300
     43 H43         1.8989    3.4542   41.8366 H       1  ZINC000191003171    0.1400
     44 H44         0.4281    2.4860   42.0963 H       1  ZINC000191003171    0.1300
     45 H45         0.8097   -0.2050   47.8238 H       1  ZINC000191003171    0.1500
@<TRIPOS>BOND
     1     1     2    1
     2     1    28    1
     3     1    29    1
     4     1    30    1
     5     2    11   ar
     6     2     3   ar
     7     3     4   ar
     8     3    31    1
     9     4     5    1
    10     4     9   ar
    11     5     6    1
    12     5     7    1
    13     5     8    1
    14     9    10   ar
    15     9    32    1
    16    10    11   ar
    17    10    33    1
    18    11    12    1
    19    12    13    1
    20    12    34    1
    21    12    35    1
    22    13    14    1
    23    13    36    1
    24    14    15    1
    25    14    16    1
    26    14    17    1
    27    16    37    1
    28    16    38    1
    29    16    39    1
    30    17    27   ar
    31    17    18   ar
    32    18    19   ar
    33    18    40    1
    34    19    20   ar
    35    19    41    1
    36    20    21    1
    37    20    25   ar
    38    21    22    1
    39    21    23    2
    40    21    24    2
    41    22    42    1
    42    22    43    1
    43    22    44    1
    44    25    26    1
    45    25    27   ar
    46    27    45    1
@<TRIPOS>SUBSTRUCTURE
     1 ZINC000191003171        1 TEMP              0 ****  ****    0 ROOT


##########                                Name:    ZINC000013551438
##########                DOCK_Rotatable_Bonds:                   5
##########                         Heavy_Atoms:                  27
##########                    Molecular_Weight:             377.467
##########                DOCK_Rotatable_Bonds:                   5
##########                       Formal_Charge:          -0.0300005
##########                     HBond_Acceptors:                   6
##########                        HBond_Donors:                   1
##########                         Heavy_Atoms:                  27
##########                          Grid_Score:          -30.471962
##########                     Grid_vdw_energy:          -27.183611
##########                      Grid_es_energy:           -3.288351
##########           Internal_energy_repulsive:           15.166580

@<TRIPOS>MOLECULE
ZINC000013551438
 46 49 1 0 0
SMALL
USER_CHARGES


@<TRIPOS>ATOM
      1 C1         -2.0063   -1.4113   48.0390 C.3     1  <0>         0.0300
      2 O2         -2.8897   -0.2930   48.1435 O.3     1  <0>        -0.3200
      3 C3         -2.3209    0.9418   48.1795 C.ar    1  <0>         0.1000
      4 C4         -1.5937    1.4027   47.0856 C.ar    1  <0>        -0.1800
      5 C5         -1.0115    2.6506   47.1064 C.ar    1  <0>        -0.0900
      6 C6         -1.1474    3.4630   48.2273 C.ar    1  <0>         0.0700
      7 C7         -1.8815    2.9996   49.3324 C.ar    1  <0>        -0.0400
      8 C8         -2.4715    1.7365   49.2993 C.ar    1  <0>        -0.1100
      9 C9         -1.8348    4.0772   50.3335 C.2     1  <0>        -0.1200
     10 C10        -2.4643    4.0650   51.6768 C.2     1  <0>         0.1700
     11 C11        -3.7256    4.4811   51.8975 C.2     1  <0>        -0.3000
     12 S12        -4.0669    4.2980   53.6159 S.3     1  <0>         0.2500
     13 C13        -2.4940    3.6833   53.8781 C.2     1  <0>         0.2400
     14 N14        -1.9952    3.2828   55.1104 N.am    1  <0>        -0.6200
     15 C15        -0.7888    2.6870   55.1878 C.2     1  <0>         0.5600
     16 O16        -0.1366    2.5016   54.1788 O.2     1  <0>        -0.5000
     17 C17        -0.2587    2.2591   56.4994 C.ar    1  <0>        -0.1400
     18 C18         0.9446    1.5553   56.5734 C.ar    1  <0>        -0.0800
     19 C19         1.4342    1.1593   57.8008 C.ar    1  <0>        -0.1300
     20 C20         0.7353    1.4582   58.9569 C.ar    1  <0>        -0.0800
     21 C21        -0.4582    2.1550   58.8907 C.ar    1  <0>        -0.1300
     22 C22        -0.9561    2.5620   57.6701 C.ar    1  <0>        -0.0500
     23 N23        -1.8352    3.6379   52.7642 N.2     1  <0>        -0.5000
     24 C24        -1.1056    5.0818   49.7921 C.2     1  <0>         0.1300
     25 C25        -0.7970    6.3920   50.4698 C.3     1  <0>        -0.0900
     26 N26        -0.6907    4.7274   48.5377 N.pl3   1  <0>        -0.4800
     27 C27         0.1209    5.5674   47.6534 C.3     1  <0>         0.0800
     28 H28        -1.3331   -1.4240   48.8962 H       1  <0>         0.0500
     29 H29        -2.5878   -2.3331   48.0201 H       1  <0>         0.1000
     30 H30        -1.4242   -1.3301   47.1210 H       1  <0>         0.0500
     31 H31        -1.4848    0.7758   46.2130 H       1  <0>         0.1300
     32 H32        -0.4491    2.9983   46.2524 H       1  <0>         0.1200
     33 H33        -3.0361    1.3784   50.1475 H       1  <0>         0.1300
     34 H34        -4.4083    4.8606   51.1517 H       1  <0>         0.1800
     35 H35        -2.5150    3.4318   55.9157 H       1  <0>         0.4200
     36 H36         1.4910    1.3211   55.6717 H       1  <0>         0.1300
     37 H37         2.3648    0.6144   57.8594 H       1  <0>         0.1300
     38 H38         1.1229    1.1458   59.9153 H       1  <0>         0.1300
     39 H39        -0.9991    2.3848   59.7969 H       1  <0>         0.1300
     40 H40        -1.8876    3.1061   57.6198 H       1  <0>         0.1400
     41 H41         0.1766    6.3291   50.9559 H       1  <0>         0.0800
     42 H42        -0.7816    7.1901   49.7276 H       1  <0>         0.0700
     43 H43        -1.5627    6.6043   51.2159 H       1  <0>         0.0800
     44 H44         1.1775    5.3683   47.8321 H       1  <0>         0.0700
     45 H45        -0.1209    5.3414   46.6149 H       1  <0>         0.0800
     46 H46        -0.0901    6.6175   47.8554 H       1  <0>         0.0800
@<TRIPOS>BOND
     1     1     2    1
     2     1    28    1
     3     1    29    1
     4     1    30    1
     5     2     3    1
     6     3     8   ar
     7     3     4   ar
     8     4     5   ar
     9     4    31    1
    10     5     6   ar
    11     5    32    1
    12     6    26    1
    13     6     7   ar
    14     7     8   ar
    15     7     9    1
    16     8    33    1
    17     9    10    1
    18     9    24    2
    19    10    23    1
    20    10    11    2
    21    11    12    1
    22    11    34    1
    23    12    13    1
    24    13    14    1
    25    13    23    2
    26    14    15   am
    27    14    35    1
    28    15    16    2
    29    15    17    1
    30    17    22   ar
    31    17    18   ar
    32    18    19   ar
    33    18    36    1
    34    19    20   ar
    35    19    37    1
    36    20    21   ar
    37    20    38    1
    38    21    22   ar
    39    21    39    1
    40    22    40    1
    41    24    25    1
    42    24    26    1
    43    25    41    1
    44    25    42    1
    45    25    43    1
    46    26    27    1
    47    27    44    1
    48    27    45    1
    49    27    46    1
@<TRIPOS>SUBSTRUCTURE
     1 <0>         1 TEMP              0 ****  ****    0 ROOT


##########                                Name:    ZINC001110536231
##########                DOCK_Rotatable_Bonds:                   8
##########                         Heavy_Atoms:                  24
##########                    Molecular_Weight:             329.442
##########                DOCK_Rotatable_Bonds:                   8
##########                       Formal_Charge:          -0.0400001
##########                     HBond_Acceptors:                   5
##########                        HBond_Donors:                   1
##########                         Heavy_Atoms:                  24
##########                          Grid_Score:          -30.467999
##########                     Grid_vdw_energy:          -29.817497
##########                      Grid_es_energy:           -0.650501
##########           Internal_energy_repulsive:           31.454239

@<TRIPOS>MOLECULE
ZINC001110536231
 51 53 1 0 0
SMALL
USER_CHARGES


@<TRIPOS>ATOM
      1 C1          2.6480    5.6402   42.8426 C.3     1  ZINC001110536231   -0.1300
      2 C2          2.6395    5.2453   44.3207 C.3     1  ZINC001110536231   -0.1000
      3 C3          1.8840    3.9525   44.4910 C.2     1  ZINC001110536231   -0.0200
      4 C4          0.7591    3.6076   43.5492 C.3     1  ZINC001110536231   -0.1300
      5 C5          2.2099    3.1160   45.4722 C.2     1  ZINC001110536231   -0.2400
      6 C6          1.4723    1.8542   45.6382 C.2     1  ZINC001110536231    0.5400
      7 O7          1.5695    0.9782   44.8003 O.2     1  ZINC001110536231   -0.5300
      8 N8          0.6887    1.6689   46.7190 N.am    1  ZINC001110536231   -0.7300
      9 C9         -0.0446    0.4115   46.8852 C.3     1  ZINC001110536231    0.1100
     10 H10         0.5113   -0.4165   46.4453 H       1  ZINC001110536231    0.1000
     11 C11        -1.4555    0.5160   46.2562 C.3     1  ZINC001110536231   -0.1600
     12 C12        -2.4115    0.2954   47.4671 C.3     1  ZINC001110536231    0.0500
     13 H13        -3.4264    0.6723   47.3404 H       1  ZINC001110536231    0.1200
     14 C14        -2.2942   -1.2219   47.8036 C.3     1  ZINC001110536231   -0.1200
     15 C15        -0.8832   -1.3458   48.4291 C.3     1  ZINC001110536231   -0.1100
     16 C16        -0.3328    0.1396   48.3925 C.3     1  ZINC001110536231    0.0400
     17 H17         0.4767    0.3588   49.0887 H       1  ZINC001110536231    0.1200
     18 N18        -1.6130    0.9190   48.5821 N.3     1  ZINC001110536231   -0.4900
     19 C19        -1.3945    2.3537   48.3538 C.3     1  ZINC001110536231    0.0600
     20 C20        -2.2173    3.1493   49.3341 C.ar    1  ZINC001110536231    0.0100
     21 C21        -3.1182    2.5188   50.1809 C.ar    1  ZINC001110536231   -0.2100
     22 C22        -3.8563    3.2774   51.0677 C.ar    1  ZINC001110536231    0.1400
     23 N23        -3.7144    4.5881   51.1176 N.ar    1  ZINC001110536231   -0.5400
     24 C24        -2.8663    5.2249   50.3270 C.ar    1  ZINC001110536231    0.3200
     25 O25        -2.7521    6.5742   50.4123 O.3     1  ZINC001110536231   -0.3100
     26 C26        -3.5887    7.2374   51.3621 C.3     1  ZINC001110536231    0.0400
     27 C27        -2.0877    4.5252   49.4144 C.ar    1  ZINC001110536231   -0.1700
     28 H28         3.1945    6.5752   42.7195 H       1  ZINC001110536231    0.0500
     29 H29         3.1326    4.8567   42.2600 H       1  ZINC001110536231    0.0700
     30 H30         1.6230    5.7700   42.4953 H       1  ZINC001110536231    0.0400
     31 H31         3.6646    5.1155   44.6680 H       1  ZINC001110536231    0.0900
     32 H32         2.1549    6.0288   44.9033 H       1  ZINC001110536231    0.0600
     33 H33         1.1547    3.0526   42.6985 H       1  ZINC001110536231    0.0800
     34 H34         0.0228    2.9963   44.0711 H       1  ZINC001110536231    0.0700
     35 H35         0.2862    4.5243   43.1969 H       1  ZINC001110536231    0.0700
     36 H36         3.0160    3.3632   46.1471 H       1  ZINC001110536231    0.1200
     37 H37         0.6101    2.3680   47.3867 H       1  ZINC001110536231    0.4000
     38 H38        -1.6094    1.5033   45.8207 H       1  ZINC001110536231    0.0700
     39 H39        -1.6000   -0.2620   45.5065 H       1  ZINC001110536231    0.0800
     40 H40        -3.0595   -1.5159   48.5219 H       1  ZINC001110536231    0.0700
     41 H41        -2.3662   -1.8226   46.8970 H       1  ZINC001110536231    0.0700
     42 H42        -0.9492   -1.7014   49.4573 H       1  ZINC001110536231    0.0800
     43 H43        -0.2559   -2.0081   47.8324 H       1  ZINC001110536231    0.0700
     44 H44        -0.3388    2.5870   48.4920 H       1  ZINC001110536231    0.0900
     45 H45        -1.6931    2.6095   47.3372 H       1  ZINC001110536231    0.0700
     46 H46        -3.2408    1.4463   50.1463 H       1  ZINC001110536231    0.1300
     47 H47        -4.5589    2.7916   51.7286 H       1  ZINC001110536231    0.1600
     48 H48        -3.3977    8.3100   51.3281 H       1  ZINC001110536231    0.1000
     49 H49        -4.6345    7.0467   51.1208 H       1  ZINC001110536231    0.0600
     50 H50        -3.3722    6.8613   52.3621 H       1  ZINC001110536231    0.0600
     51 H51        -1.3961    5.0482   48.7707 H       1  ZINC001110536231    0.1400
@<TRIPOS>BOND
     1     1     2    1
     2     1    28    1
     3     1    29    1
     4     1    30    1
     5     2     3    1
     6     2    31    1
     7     2    32    1
     8     3     4    1
     9     3     5    2
    10     4    33    1
    11     4    34    1
    12     4    35    1
    13     5     6    1
    14     5    36    1
    15     6     7    2
    16     6     8   am
    17     8     9    1
    18     8    37    1
    19     9    10    1
    20     9    16    1
    21     9    11    1
    22    11    12    1
    23    11    38    1
    24    11    39    1
    25    12    13    1
    26    12    18    1
    27    12    14    1
    28    14    15    1
    29    14    40    1
    30    14    41    1
    31    15    16    1
    32    15    42    1
    33    15    43    1
    34    16    17    1
    35    16    18    1
    36    18    19    1
    37    19    20    1
    38    19    44    1
    39    19    45    1
    40    20    27   ar
    41    20    21   ar
    42    21    22   ar
    43    21    46    1
    44    22    23   ar
    45    22    47    1
    46    23    24   ar
    47    24    25    1
    48    24    27   ar
    49    25    26    1
    50    26    48    1
    51    26    49    1
    52    26    50    1
    53    27    51    1
@<TRIPOS>SUBSTRUCTURE
     1 ZINC001110536231        1 TEMP              0 ****  ****    0 ROOT


##########                                Name:    ZINC000054627026
##########                DOCK_Rotatable_Bonds:                   5
##########                         Heavy_Atoms:                  28
##########                    Molecular_Weight:              370.37
##########                DOCK_Rotatable_Bonds:                   5
##########                       Formal_Charge:         6.85453e-07
##########                     HBond_Acceptors:                   8
##########                        HBond_Donors:                   2
##########                         Heavy_Atoms:                  28
##########                          Grid_Score:          -30.466347
##########                     Grid_vdw_energy:          -28.857500
##########                      Grid_es_energy:           -1.608847
##########           Internal_energy_repulsive:            4.138558

@<TRIPOS>MOLECULE
ZINC000054627026
 42 46 1 0 0
SMALL
USER_CHARGES


@<TRIPOS>ATOM
      1 O1         -2.3667    3.8406   49.3284 O.2     1  ZINC000054627026   -0.5200
      2 C2         -1.9913    3.0148   50.1382 C.2     1  ZINC000054627026    0.6100
      3 N3         -1.4672    1.8470   49.7164 N.am    1  ZINC000054627026   -0.6500
      4 C4         -1.3601    1.5821   48.3454 C.ar    1  ZINC000054627026    0.1400
      5 C5         -2.3033    0.7682   47.7215 C.ar    1  ZINC000054627026   -0.0900
      6 C6         -2.2097    0.4999   46.3725 C.ar    1  ZINC000054627026   -0.0900
      7 C7         -1.1716    1.0418   45.6286 C.ar    1  ZINC000054627026    0.0500
      8 N8         -0.8084    0.9654   44.2953 N.pl3   1  ZINC000054627026   -0.5900
      9 C9          0.3257    1.7200   44.1411 C.2     1  ZINC000054627026    0.3700
     10 C10         1.0488    1.9124   42.8753 C.2     1  ZINC000054627026    0.0200
     11 C11         1.3254    3.1098   42.2854 C.2     1  ZINC000054627026   -0.1200
     12 C12         2.0284    2.8246   41.1010 C.2     1  ZINC000054627026   -0.2200
     13 C13         2.1468    1.4828   41.0238 C.2     1  ZINC000054627026   -0.0100
     14 O14         1.5591    0.9358   42.0987 O.3     1  ZINC000054627026   -0.1700
     15 N15         0.6684    2.2455   45.2954 N.2     1  ZINC000054627026   -0.4600
     16 C16        -0.2148    1.8646   46.2498 C.ar    1  ZINC000054627026    0.0700
     17 C17        -0.3226    2.1343   47.6177 C.ar    1  ZINC000054627026   -0.0900
     18 C18        -2.1040    3.2937   51.5822 C.2     1  ZINC000054627026   -0.1000
     19 C19        -3.2684    3.3644   52.2934 C.2     1  ZINC000054627026    0.1000
     20 N20        -2.9288    3.6372   53.5721 N.pl3   1  ZINC000054627026   -0.3100
     21 C21        -3.8059    3.7980   54.6542 C.ar    1  ZINC000054627026    0.1300
     22 C22        -3.3077    4.1016   55.9141 C.ar    1  ZINC000054627026   -0.1200
     23 C23        -4.1741    4.2599   56.9780 C.ar    1  ZINC000054627026   -0.1000
     24 C24        -5.5364    4.1158   56.7895 C.ar    1  ZINC000054627026   -0.1100
     25 C25        -6.0355    3.8129   55.5359 C.ar    1  ZINC000054627026   -0.1000
     26 C26        -5.1744    3.6596   54.4669 C.ar    1  ZINC000054627026   -0.1000
     27 N27        -1.5301    3.7281   53.6086 N.2     1  ZINC000054627026   -0.0500
     28 N28        -1.0781    3.5154   52.4220 N.2     1  ZINC000054627026   -0.2000
     29 H29        -1.1639    1.1899   50.3624 H       1  ZINC000054627026    0.4200
     30 H30        -3.1122    0.3447   48.2982 H       1  ZINC000054627026    0.1500
     31 H31        -2.9440   -0.1322   45.8951 H       1  ZINC000054627026    0.1300
     32 H32        -1.2696    0.4702   43.6002 H       1  ZINC000054627026    0.4300
     33 H33         1.0563    4.0881   42.6555 H       1  ZINC000054627026    0.1600
     34 H34         2.4025    3.5440   40.3876 H       1  ZINC000054627026    0.1600
     35 H35         2.6369    0.9390   40.2297 H       1  ZINC000054627026    0.2100
     36 H36         0.4034    2.7690   48.1042 H       1  ZINC000054627026    0.1400
     37 H37        -4.2680    3.2287   51.9075 H       1  ZINC000054627026    0.2100
     38 H38        -2.2438    4.2136   56.0621 H       1  ZINC000054627026    0.1400
     39 H39        -3.7872    4.4961   57.9582 H       1  ZINC000054627026    0.1400
     40 H40        -6.2119    4.2397   57.6230 H       1  ZINC000054627026    0.1400
     41 H41        -7.0999    3.7007   55.3918 H       1  ZINC000054627026    0.1400
     42 H42        -5.5649    3.4230   53.4881 H       1  ZINC000054627026    0.1400
@<TRIPOS>BOND
     1     1     2    2
     2     2     3   am
     3     2    18    1
     4     3     4    1
     5     3    29    1
     6     4    17   ar
     7     4     5   ar
     8     5     6   ar
     9     5    30    1
    10     6     7   ar
    11     6    31    1
    12     7    16   ar
    13     7     8    1
    14     8     9    1
    15     8    32    1
    16     9    10    1
    17     9    15    2
    18    10    14    1
    19    10    11    2
    20    11    12    1
    21    11    33    1
    22    12    13    2
    23    12    34    1
    24    13    14    1
    25    13    35    1
    26    15    16    1
    27    16    17   ar
    28    17    36    1
    29    18    28    1
    30    18    19    2
    31    19    20    1
    32    19    37    1
    33    20    21    1
    34    20    27    1
    35    21    26   ar
    36    21    22   ar
    37    22    23   ar
    38    22    38    1
    39    23    24   ar
    40    23    39    1
    41    24    25   ar
    42    24    40    1
    43    25    26   ar
    44    25    41    1
    45    26    42    1
    46    27    28    2
@<TRIPOS>SUBSTRUCTURE
     1 ZINC000054627026        1 TEMP              0 ****  ****    0 ROOT


##########                                Name:    ZINC000032503012
##########                DOCK_Rotatable_Bonds:                   8
##########                         Heavy_Atoms:                  27
##########                    Molecular_Weight:             390.503
##########                DOCK_Rotatable_Bonds:                   8
##########                       Formal_Charge:           0.0099995
##########                     HBond_Acceptors:                   7
##########                        HBond_Donors:                   2
##########                         Heavy_Atoms:                  27
##########                          Grid_Score:          -30.423935
##########                     Grid_vdw_energy:          -28.877182
##########                      Grid_es_energy:           -1.546753
##########           Internal_energy_repulsive:           42.964912

@<TRIPOS>MOLECULE
ZINC000032503012
 53 54 1 0 0
SMALL
USER_CHARGES


@<TRIPOS>ATOM
      1 C1         -8.3879    3.8473   54.6479 C.3     1  ZINC000032503012   -0.1200
      2 C2         -7.4437    4.3806   53.6013 C.ar    1  ZINC000032503012   -0.0500
      3 C3         -7.7160    5.5818   52.9734 C.ar    1  ZINC000032503012   -0.1600
      4 C4         -6.8516    6.0739   52.0126 C.ar    1  ZINC000032503012   -0.0700
      5 C5         -5.7137    5.3659   51.6780 C.ar    1  ZINC000032503012   -0.1500
      6 C6         -5.4384    4.1601   52.3068 C.ar    1  ZINC000032503012    0.1300
      7 O7         -4.3193    3.4618   51.9796 O.3     1  ZINC000032503012   -0.2800
      8 C8         -3.4179    4.0762   51.0567 C.3     1  ZINC000032503012    0.0700
      9 H9         -3.9832    4.5179   50.2359 H       1  ZINC000032503012    0.1100
     10 C10        -2.6207    5.1684   51.7726 C.3     1  ZINC000032503012   -0.1800
     11 C11        -2.4708    3.0379   50.5127 C.2     1  ZINC000032503012    0.5200
     12 O12        -1.5341    2.6603   51.1842 O.2     1  ZINC000032503012   -0.4900
     13 N13        -2.6647    2.5288   49.2799 N.am    1  ZINC000032503012   -0.6700
     14 C14        -1.7854    1.5647   48.7747 C.ar    1  ZINC000032503012    0.1300
     15 C15        -2.1486    0.2245   48.7735 C.ar    1  ZINC000032503012   -0.0600
     16 C16        -1.2783   -0.7249   48.2741 C.ar    1  ZINC000032503012   -0.1200
     17 C17        -0.0465   -0.3420   47.7764 C.ar    1  ZINC000032503012   -0.0300
     18 C18         0.3184    0.9920   47.7767 C.ar    1  ZINC000032503012   -0.6600
     19 S19         1.8894    1.4748   47.1413 S.o2    1  ZINC000032503012    2.7000
     20 O20         2.5267    2.2194   48.1702 O.2     1  ZINC000032503012   -0.9600
     21 O21         2.4598    0.3126   46.5556 O.2     1  ZINC000032503012   -0.9500
     22 N22         1.6112    2.5354   45.9003 N.am    1  ZINC000032503012   -1.1100
     23 C23         0.8336    2.1103   44.7337 C.3     1  ZINC000032503012    0.1700
     24 C24        -0.6169    1.8603   45.1512 C.3     1  ZINC000032503012   -0.1900
     25 C25         0.8757    3.2054   43.6661 C.3     1  ZINC000032503012   -0.1500
     26 C26         1.4303    0.8210   44.1656 C.3     1  ZINC000032503012   -0.1800
     27 C27        -0.5498    1.9468   48.2684 C.ar    1  ZINC000032503012   -0.0400
     28 C28        -6.3040    3.6714   53.2742 C.ar    1  ZINC000032503012   -0.2100
     29 H29        -8.0933    4.2223   55.6280 H       1  ZINC000032503012    0.0700
     30 H30        -9.4026    4.1759   54.4231 H       1  ZINC000032503012    0.0700
     31 H31        -8.3507    2.7580   54.6495 H       1  ZINC000032503012    0.0700
     32 H32        -8.6053    6.1366   53.2334 H       1  ZINC000032503012    0.1300
     33 H33        -7.0666    7.0123   51.5232 H       1  ZINC000032503012    0.1300
     34 H34        -5.0392    5.7504   50.9274 H       1  ZINC000032503012    0.1300
     35 H35        -3.3057    5.9195   52.1660 H       1  ZINC000032503012    0.0800
     36 H36        -2.0554    4.7268   52.5932 H       1  ZINC000032503012    0.0800
     37 H37        -1.9332    5.6371   51.0685 H       1  ZINC000032503012    0.0800
     38 H38        -3.4139    2.8308   48.7427 H       1  ZINC000032503012    0.4100
     39 H39        -3.1103   -0.0754   49.1627 H       1  ZINC000032503012    0.1400
     40 H40        -1.5602   -1.7675   48.2728 H       1  ZINC000032503012    0.1400
     41 H41         0.6323   -1.0863   47.3869 H       1  ZINC000032503012    0.1500
     42 H42         1.9631    3.4382   45.9458 H       1  ZINC000032503012    0.4200
     43 H43        -0.9854    2.7171   45.7152 H       1  ZINC000032503012    0.0700
     44 H44        -1.2316    1.7188   44.2622 H       1  ZINC000032503012    0.0800
     45 H45        -0.6670    0.9668   45.7736 H       1  ZINC000032503012    0.0700
     46 H46         1.9090    3.3835   43.3687 H       1  ZINC000032503012    0.0700
     47 H47         0.2972    2.8890   42.7982 H       1  ZINC000032503012    0.0700
     48 H48         0.4506    4.1239   44.0709 H       1  ZINC000032503012    0.0600
     49 H49         1.2236   -0.0055   44.8455 H       1  ZINC000032503012    0.0900
     50 H50         0.9841    0.6118   43.1932 H       1  ZINC000032503012    0.0700
     51 H51         2.5081    0.9381   44.0532 H       1  ZINC000032503012    0.0600
     52 H52        -0.2643    2.9883   48.2684 H       1  ZINC000032503012    0.1400
     53 H53        -6.0919    2.7330   53.7650 H       1  ZINC000032503012    0.1300
@<TRIPOS>BOND
     1     1     2    1
     2     1    29    1
     3     1    30    1
     4     1    31    1
     5     2    28   ar
     6     2     3   ar
     7     3     4   ar
     8     3    32    1
     9     4     5   ar
    10     4    33    1
    11     5     6   ar
    12     5    34    1
    13     6     7    1
    14     6    28   ar
    15     7     8    1
    16     8     9    1
    17     8    10    1
    18     8    11    1
    19    10    35    1
    20    10    36    1
    21    10    37    1
    22    11    12    2
    23    11    13   am
    24    13    14    1
    25    13    38    1
    26    14    27   ar
    27    14    15   ar
    28    15    16   ar
    29    15    39    1
    30    16    17   ar
    31    16    40    1
    32    17    18   ar
    33    17    41    1
    34    18    19    1
    35    18    27   ar
    36    19    20    2
    37    19    21    2
    38    19    22   am
    39    22    23    1
    40    22    42    1
    41    23    24    1
    42    23    25    1
    43    23    26    1
    44    24    43    1
    45    24    44    1
    46    24    45    1
    47    25    46    1
    48    25    47    1
    49    25    48    1
    50    26    49    1
    51    26    50    1
    52    26    51    1
    53    27    52    1
    54    28    53    1
@<TRIPOS>SUBSTRUCTURE
     1 ZINC000032503012        1 TEMP              0 ****  ****    0 ROOT


##########                                Name:    ZINC000579444893
##########                DOCK_Rotatable_Bonds:                   8
##########                         Heavy_Atoms:                  26
##########                    Molecular_Weight:             365.494
##########                DOCK_Rotatable_Bonds:                   8
##########                       Formal_Charge:         -0.00999993
##########                     HBond_Acceptors:                   7
##########                        HBond_Donors:                   1
##########                         Heavy_Atoms:                  26
##########                          Grid_Score:          -30.421701
##########                     Grid_vdw_energy:          -30.407928
##########                      Grid_es_energy:           -0.013774
##########           Internal_energy_repulsive:           33.671078

@<TRIPOS>MOLECULE
ZINC000579444893
 58 60 1 0 0
SMALL
USER_CHARGES


@<TRIPOS>ATOM
      1 C1         -2.9846    4.9249   50.0679 C.3     1  ZINC000579444893   -0.1600
      2 C2         -1.6547    4.1689   50.0976 C.3     1  ZINC000579444893    0.1700
      3 H3         -1.5958    3.5730   51.0084 H       1  ZINC000579444893    0.0900
      4 N4         -1.5681    3.2873   48.9308 N.am    1  ZINC000579444893   -0.7400
      5 C5         -2.2164    2.1058   48.9292 C.2     1  ZINC000579444893    0.7100
      6 O6         -2.8721    1.7709   49.8969 O.2     1  ZINC000579444893   -0.5900
      7 N7         -2.1380    1.2954   47.8551 N.am    1  ZINC000579444893   -0.6300
      8 C8         -2.8413    0.0104   47.8543 C.3     1  ZINC000579444893    0.0800
      9 C9         -1.3494    1.6997   46.6885 C.3     1  ZINC000579444893    0.1100
     10 C10        -0.1706    0.7404   46.5125 C.3     1  ZINC000579444893    0.0600
     11 H11        -0.5363   -0.2808   46.4064 H       1  ZINC000579444893    0.1000
     12 C12         0.7712    0.8368   47.7312 C.3     1  ZINC000579444893   -0.1600
     13 C13         2.1807    0.7173   47.0941 C.3     1  ZINC000579444893    0.0800
     14 H14         2.4433   -0.3261   46.9198 H       1  ZINC000579444893    0.1000
     15 F15         3.1446    1.3480   47.8881 F       1  ZINC000579444893   -0.2000
     16 C16         1.9838    1.4710   45.7552 C.3     1  ZINC000579444893    0.0200
     17 N17         0.6112    1.1196   45.3212 N.3     1  ZINC000579444893   -0.5000
     18 C18        -0.0201    2.2408   44.6124 C.3     1  ZINC000579444893    0.1000
     19 C19         0.8326    2.6339   43.4337 C.2     1  ZINC000579444893    0.0800
     20 C20         1.2763    1.8070   42.4589 C.2     1  ZINC000579444893   -0.2500
     21 C21         2.0308    2.5676   41.5597 C.2     1  ZINC000579444893    0.0400
     22 N22         2.0398    3.8068   41.9797 N.2     1  ZINC000579444893   -0.2900
     23 N23         1.2856    3.8749   43.1582 N.pl3   1  ZINC000579444893   -0.3700
     24 C24         1.0399    5.0789   43.9558 C.3     1  ZINC000579444893    0.0900
     25 C25        -0.4981    5.1701   50.0675 C.3     1  ZINC000579444893   -0.1000
     26 C26         0.8587    4.4350   50.2009 C.3     1  ZINC000579444893   -0.1200
     27 C27         1.8533    5.4346   49.5602 C.3     1  ZINC000579444893   -0.1300
     28 C28         1.0757    6.0312   48.3689 C.3     1  ZINC000579444893   -0.1300
     29 C29        -0.4195    5.8629   48.6915 C.3     1  ZINC000579444893   -0.1200
     30 H30        -3.8062    4.2122   49.9966 H       1  ZINC000579444893    0.0600
     31 H31        -3.0900    5.5107   50.9811 H       1  ZINC000579444893    0.0700
     32 H32        -3.0050    5.5905   49.2050 H       1  ZINC000579444893    0.0500
     33 H33        -1.0440    3.5539   48.1593 H       1  ZINC000579444893    0.4000
     34 H34        -3.8738    0.1615   47.5395 H       1  ZINC000579444893    0.0600
     35 H35        -2.3474   -0.6737   47.1641 H       1  ZINC000579444893    0.0800
     36 H36        -2.8259   -0.4129   48.8586 H       1  ZINC000579444893    0.0700
     37 H37        -1.9772    1.6711   45.7980 H       1  ZINC000579444893    0.0900
     38 H38        -0.9746    2.7125   46.8365 H       1  ZINC000579444893    0.0900
     39 H39         0.6552    1.7974   48.2329 H       1  ZINC000579444893    0.1100
     40 H40         0.5904    0.0148   48.4238 H       1  ZINC000579444893    0.0800
     41 H41         2.0709    2.5466   45.9088 H       1  ZINC000579444893    0.0600
     42 H42         2.7117    1.1320   45.0182 H       1  ZINC000579444893    0.0900
     43 H43        -1.0074    1.9395   44.2623 H       1  ZINC000579444893    0.1100
     44 H44        -0.1180    3.0896   45.2893 H       1  ZINC000579444893    0.0500
     45 H45         1.0825    0.7469   42.3879 H       1  ZINC000579444893    0.1500
     46 H46         2.5217    2.1961   40.6724 H       1  ZINC000579444893    0.1800
     47 H47         0.1047    5.5403   43.6386 H       1  ZINC000579444893    0.0800
     48 H48         0.9728    4.8092   45.0097 H       1  ZINC000579444893    0.0800
     49 H49         1.8594    5.7832   43.8125 H       1  ZINC000579444893    0.0900
     50 H50        -0.6137    5.9089   50.8606 H       1  ZINC000579444893    0.0800
     51 H51         1.1040    4.2641   51.2490 H       1  ZINC000579444893    0.0700
     52 H52         0.8451    3.4958   49.6481 H       1  ZINC000579444893    0.0700
     53 H53         2.1200    6.2164   50.2715 H       1  ZINC000579444893    0.0700
     54 H54         2.7455    4.9146   49.2114 H       1  ZINC000579444893    0.0700
     55 H55         1.3169    7.0882   48.2572 H       1  ZINC000579444893    0.0600
     56 H56         1.3231    5.4926   47.4541 H       1  ZINC000579444893    0.0600
     57 H57        -0.8976    5.2427   47.9333 H       1  ZINC000579444893    0.0600
     58 H58        -0.9038    6.8383   48.7363 H       1  ZINC000579444893    0.0600
@<TRIPOS>BOND
     1     1     2    1
     2     1    30    1
     3     1    31    1
     4     1    32    1
     5     2     3    1
     6     2     4    1
     7     2    25    1
     8     4     5   am
     9     4    33    1
    10     5     6    2
    11     5     7   am
    12     7     8    1
    13     7     9    1
    14     8    34    1
    15     8    35    1
    16     8    36    1
    17     9    10    1
    18     9    37    1
    19     9    38    1
    20    10    11    1
    21    10    17    1
    22    10    12    1
    23    12    13    1
    24    12    39    1
    25    12    40    1
    26    13    14    1
    27    13    15    1
    28    13    16    1
    29    16    17    1
    30    16    41    1
    31    16    42    1
    32    17    18    1
    33    18    19    1
    34    18    43    1
    35    18    44    1
    36    19    23    1
    37    19    20    2
    38    20    21    1
    39    20    45    1
    40    21    22    2
    41    21    46    1
    42    22    23    1
    43    23    24    1
    44    24    47    1
    45    24    48    1
    46    24    49    1
    47    25    29    1
    48    25    26    1
    49    25    50    1
    50    26    27    1
    51    26    51    1
    52    26    52    1
    53    27    28    1
    54    27    53    1
    55    27    54    1
    56    28    29    1
    57    28    55    1
    58    28    56    1
    59    29    57    1
    60    29    58    1
@<TRIPOS>SUBSTRUCTURE
     1 ZINC000579444893        1 TEMP              0 ****  ****    0 ROOT


##########                                Name:    ZINC000052999724
##########                DOCK_Rotatable_Bonds:                   6
##########                         Heavy_Atoms:                  25
##########                    Molecular_Weight:             398.571
##########                DOCK_Rotatable_Bonds:                   6
##########                       Formal_Charge:           0.0399994
##########                     HBond_Acceptors:                   8
##########                        HBond_Donors:                   1
##########                         Heavy_Atoms:                  25
##########                          Grid_Score:          -30.418766
##########                     Grid_vdw_energy:          -29.869165
##########                      Grid_es_energy:           -0.549600
##########           Internal_energy_repulsive:           22.314638

@<TRIPOS>MOLECULE
ZINC000052999724
 47 49 1 0 0
SMALL
USER_CHARGES


@<TRIPOS>ATOM
      1 C1         -7.1025    2.3722   52.7175 C.3     1  ZINC000052999724   -0.1400
      2 C2         -6.6618    3.7944   53.0698 C.3     1  ZINC000052999724   -0.0400
      3 C3         -7.8807    4.6149   53.4965 C.3     1  ZINC000052999724   -0.1400
      4 C4         -5.6675    3.7465   54.2012 C.2     1  ZINC000052999724   -0.0400
      5 C5         -4.5134    4.4780   54.2185 C.2     1  ZINC000052999724   -0.2600
      6 C6         -4.0749    5.3996   53.1664 C.2     1  ZINC000052999724    0.6000
      7 O7         -4.6212    6.4794   53.0369 O.2     1  ZINC000052999724   -0.5200
      8 N8         -3.0668    5.0512   52.3424 N.am    1  ZINC000052999724   -0.6000
      9 C9         -2.4016    3.7487   52.4824 C.3     1  ZINC000052999724    0.1100
     10 C10        -2.4299    3.0325   51.1286 C.3     1  ZINC000052999724   -0.1400
     11 C11        -1.8141    3.9413   50.0623 C.3     1  ZINC000052999724    0.1500
     12 N12        -1.8094    3.2466   48.7725 N.am    1  ZINC000052999724   -1.1100
     13 S13        -1.7577    1.5921   48.7234 S.o2    1  ZINC000052999724    2.7200
     14 O14        -0.4885    1.2148   49.2390 O.2     1  ZINC000052999724   -0.9500
     15 O15        -2.9865    1.1358   49.2723 O.2     1  ZINC000052999724   -0.9400
     16 C16        -1.7655    1.1202   47.0258 C.2     1  ZINC000052999724   -0.8000
     17 C17        -1.2333    1.8283   46.0284 C.2     1  ZINC000052999724    0.0100
     18 C18        -1.3603    1.2560   44.7744 C.2     1  ZINC000052999724   -0.1600
     19 C19        -1.9955    0.0833   44.7534 C.2     1  ZINC000052999724   -0.1700
     20 S20        -2.4692   -0.3602   46.3882 S.3     1  ZINC000052999724    0.2100
     21 C21        -2.6381    5.2258   49.9466 C.3     1  ZINC000052999724   -0.1500
     22 C22        -2.6162    5.9643   51.2832 C.3     1  ZINC000052999724    0.1100
     23 S23        -3.6389    4.1369   55.7053 S.3     1  ZINC000052999724    0.2100
     24 C24        -4.8465    3.0474   56.2207 C.2     1  ZINC000052999724   -0.2400
     25 C25        -5.8339    2.9669   55.3212 C.2     1  ZINC000052999724   -0.1300
     26 H26        -6.2342    1.7877   52.4135 H       1  ZINC000052999724    0.0600
     27 H27        -7.5654    1.9089   53.5887 H       1  ZINC000052999724    0.0600
     28 H28        -7.8217    2.4069   51.8992 H       1  ZINC000052999724    0.0600
     29 H29        -6.1990    4.2577   52.1986 H       1  ZINC000052999724    0.0800
     30 H30        -8.3437    4.1516   54.3678 H       1  ZINC000052999724    0.0600
     31 H31        -7.5668    5.6282   53.7476 H       1  ZINC000052999724    0.0600
     32 H32        -8.5999    4.6496   52.6783 H       1  ZINC000052999724    0.0600
     33 H33        -1.3683    3.8979   52.7954 H       1  ZINC000052999724    0.0800
     34 H34        -2.9273    3.1479   53.2247 H       1  ZINC000052999724    0.0900
     35 H35        -1.8563    2.1080   51.1940 H       1  ZINC000052999724    0.0900
     36 H36        -3.4610    2.8032   50.8598 H       1  ZINC000052999724    0.0800
     37 H37        -0.7912    4.1906   50.3443 H       1  ZINC000052999724    0.0900
     38 H38        -1.8365    3.7557   47.9473 H       1  ZINC000052999724    0.4200
     39 H39        -0.7411    2.7763   46.1872 H       1  ZINC000052999724    0.1600
     40 H40        -0.9746    1.7238   43.8807 H       1  ZINC000052999724    0.1500
     41 H41        -2.1863   -0.5057   43.8684 H       1  ZINC000052999724    0.1800
     42 H42        -2.2127    5.8623   49.1707 H       1  ZINC000052999724    0.1000
     43 H43        -3.6673    4.9758   49.6889 H       1  ZINC000052999724    0.0800
     44 H44        -3.2812    6.8267   51.2350 H       1  ZINC000052999724    0.1000
     45 H45        -1.6008    6.2949   51.5013 H       1  ZINC000052999724    0.0800
     46 H46        -4.8195    2.4990   57.1508 H       1  ZINC000052999724    0.1700
     47 H47        -6.6947    2.3298   55.4611 H       1  ZINC000052999724    0.1400
@<TRIPOS>BOND
     1     1     2    1
     2     1    26    1
     3     1    27    1
     4     1    28    1
     5     2     3    1
     6     2     4    1
     7     2    29    1
     8     3    30    1
     9     3    31    1
    10     3    32    1
    11     4    25    1
    12     4     5    2
    13     5     6    1
    14     5    23    1
    15     6     7    2
    16     6     8   am
    17     8    22    1
    18     8     9    1
    19     9    10    1
    20     9    33    1
    21     9    34    1
    22    10    11    1
    23    10    35    1
    24    10    36    1
    25    11    12    1
    26    11    21    1
    27    11    37    1
    28    12    13   am
    29    12    38    1
    30    13    14    2
    31    13    15    2
    32    13    16    1
    33    16    20    1
    34    16    17    2
    35    17    18    1
    36    17    39    1
    37    18    19    2
    38    18    40    1
    39    19    20    1
    40    19    41    1
    41    21    22    1
    42    21    42    1
    43    21    43    1
    44    22    44    1
    45    22    45    1
    46    23    24    1
    47    24    25    2
    48    24    46    1
    49    25    47    1
@<TRIPOS>SUBSTRUCTURE
     1 ZINC000052999724        1 TEMP              0 ****  ****    0 ROOT


##########                                Name:    ZINC001011267435
##########                DOCK_Rotatable_Bonds:                   7
##########                         Heavy_Atoms:                  24
##########                    Molecular_Weight:             331.458
##########                DOCK_Rotatable_Bonds:                   7
##########                       Formal_Charge:        -4.47035e-08
##########                     HBond_Acceptors:                   5
##########                        HBond_Donors:                   0
##########                         Heavy_Atoms:                  24
##########                          Grid_Score:          -30.404522
##########                     Grid_vdw_energy:          -29.831429
##########                      Grid_es_energy:           -0.573094
##########           Internal_energy_repulsive:           37.392353

@<TRIPOS>MOLECULE
ZINC001011267435
 53 54 1 0 0
SMALL
USER_CHARGES


@<TRIPOS>ATOM
      1 C1         -8.8275   -1.3747   61.5861 C.3     1  ZINC001011267435   -0.1500
      2 C2        -10.0469   -2.0983   61.0114 C.3     1  ZINC001011267435   -0.1200
      3 C3        -11.1851   -1.0964   60.8072 C.3     1  ZINC001011267435   -0.0700
      4 C4        -12.2050   -1.6802   59.8639 C.ar    1  ZINC001011267435    0.1300
      5 C5        -11.8024   -2.1408   58.6254 C.ar    1  ZINC001011267435   -0.1200
      6 C6        -12.7585   -2.6803   57.7591 C.ar    1  ZINC001011267435   -0.0800
      7 C7        -12.3737   -3.1872   56.4213 C.2     1  ZINC001011267435    0.5600
      8 O8        -12.3124   -4.3839   56.2195 O.2     1  ZINC001011267435   -0.5200
      9 N9        -12.0916   -2.3210   55.4280 N.am    1  ZINC001011267435   -0.6100
     10 C10       -12.1558   -0.8711   55.6593 C.3     1  ZINC001011267435    0.0700
     11 C11       -10.8055   -0.2534   55.2753 C.3     1  ZINC001011267435    0.1000
     12 N12       -10.4278   -0.7418   53.9417 N.am    1  ZINC001011267435   -0.6200
     13 C13       -10.1449    0.1243   52.9486 C.2     1  ZINC001011267435    0.5300
     14 O14        -9.8346   -0.2908   51.8521 O.2     1  ZINC001011267435   -0.5300
     15 C15       -10.2144    1.6084   53.2005 C.3     1  ZINC001011267435   -0.1100
     16 H16       -11.1258    1.8412   53.7512 H       1  ZINC001011267435    0.0900
     17 C17       -10.2220    2.3529   51.8638 C.3     1  ZINC001011267435   -0.1500
     18 C18        -8.9980    2.0441   54.0200 C.3     1  ZINC001011267435   -0.0800
     19 C19        -7.8118    2.2841   53.0840 C.3     1  ZINC001011267435   -0.1500
     20 C20        -9.3252    3.3368   54.7704 C.3     1  ZINC001011267435   -0.1500
     21 C21       -10.3637   -2.1918   53.7104 C.3     1  ZINC001011267435    0.0900
     22 C22       -11.7085   -2.8095   54.0959 C.3     1  ZINC001011267435    0.1000
     23 C23       -14.0872   -2.7285   58.1908 C.ar    1  ZINC001011267435   -0.1600
     24 C24       -14.4017   -2.2451   59.4464 C.ar    1  ZINC001011267435    0.1100
     25 N25       -13.4684   -1.7493   60.2339 N.ar    1  ZINC001011267435   -0.4600
     26 H26        -8.5068   -0.5967   60.8933 H       1  ZINC001011267435    0.0600
     27 H27        -9.0904   -0.9235   62.5429 H       1  ZINC001011267435    0.0500
     28 H28        -8.0167   -2.0886   61.7316 H       1  ZINC001011267435    0.0600
     29 H29        -9.7841   -2.5496   60.0547 H       1  ZINC001011267435    0.0700
     30 H30       -10.3677   -2.8764   61.7042 H       1  ZINC001011267435    0.0600
     31 H31       -11.6573   -0.8827   61.7661 H       1  ZINC001011267435    0.0800
     32 H32       -10.7859   -0.1741   60.3852 H       1  ZINC001011267435    0.0900
     33 H33       -10.7650   -2.0847   58.3305 H       1  ZINC001011267435    0.1400
     34 H34       -12.9445   -0.4371   55.0447 H       1  ZINC001011267435    0.0800
     35 H35       -12.3605   -0.6774   56.7122 H       1  ZINC001011267435    0.1100
     36 H36       -10.8924    0.8330   55.2559 H       1  ZINC001011267435    0.1100
     37 H37       -10.0481   -0.5494   56.0012 H       1  ZINC001011267435    0.0700
     38 H38       -10.1884    3.4270   52.0459 H       1  ZINC001011267435    0.0800
     39 H39        -9.3520    2.0563   51.2779 H       1  ZINC001011267435    0.0600
     40 H40       -11.1308    2.1055   51.3153 H       1  ZINC001011267435    0.0600
     41 H41        -8.7436    1.2628   54.7361 H       1  ZINC001011267435    0.0800
     42 H42        -6.9453    2.5946   53.6678 H       1  ZINC001011267435    0.0600
     43 H43        -7.5788    1.3633   52.5494 H       1  ZINC001011267435    0.0600
     44 H44        -8.0664    3.0655   52.3679 H       1  ZINC001011267435    0.0600
     45 H45       -10.1703    3.1657   55.4372 H       1  ZINC001011267435    0.0600
     46 H46        -8.4587    3.6472   55.3542 H       1  ZINC001011267435    0.0600
     47 H47        -9.5798    4.1181   54.0543 H       1  ZINC001011267435    0.0500
     48 H48       -10.1590   -2.3856   52.6575 H       1  ZINC001011267435    0.1000
     49 H49        -9.5749   -2.6257   54.3249 H       1  ZINC001011267435    0.0800
     50 H50       -11.6202   -3.8958   54.1148 H       1  ZINC001011267435    0.1100
     51 H51       -12.4678   -2.5143   53.3716 H       1  ZINC001011267435    0.0800
     52 H52       -14.8565   -3.1371   57.5522 H       1  ZINC001011267435    0.1500
     53 H53       -15.4255   -2.2777   59.7887 H       1  ZINC001011267435    0.1700
@<TRIPOS>BOND
     1     1     2    1
     2     1    26    1
     3     1    27    1
     4     1    28    1
     5     2     3    1
     6     2    29    1
     7     2    30    1
     8     3     4    1
     9     3    31    1
    10     3    32    1
    11     4    25   ar
    12     4     5   ar
    13     5     6   ar
    14     5    33    1
    15     6     7    1
    16     6    23   ar
    17     7     8    2
    18     7     9   am
    19     9    22    1
    20     9    10    1
    21    10    11    1
    22    10    34    1
    23    10    35    1
    24    11    12    1
    25    11    36    1
    26    11    37    1
    27    12    13   am
    28    12    21    1
    29    13    14    2
    30    13    15    1
    31    15    16    1
    32    15    17    1
    33    15    18    1
    34    17    38    1
    35    17    39    1
    36    17    40    1
    37    18    19    1
    38    18    20    1
    39    18    41    1
    40    19    42    1
    41    19    43    1
    42    19    44    1
    43    20    45    1
    44    20    46    1
    45    20    47    1
    46    21    22    1
    47    21    48    1
    48    21    49    1
    49    22    50    1
    50    22    51    1
    51    23    24   ar
    52    23    52    1
    53    24    25   ar
    54    24    53    1
@<TRIPOS>SUBSTRUCTURE
     1 ZINC001011267435        1 TEMP              0 ****  ****    0 ROOT


##########                                Name:    ZINC000463474628
##########                DOCK_Rotatable_Bonds:                   5
##########                         Heavy_Atoms:                  25
##########                    Molecular_Weight:              407.35
##########                DOCK_Rotatable_Bonds:                   5
##########                       Formal_Charge:           0.0200004
##########                     HBond_Acceptors:                   4
##########                        HBond_Donors:                   0
##########                         Heavy_Atoms:                  25
##########                          Grid_Score:          -30.403400
##########                     Grid_vdw_energy:          -30.941513
##########                      Grid_es_energy:            0.538113
##########           Internal_energy_repulsive:           26.446274

@<TRIPOS>MOLECULE
ZINC000463474628
 52 54 1 0 0
SMALL
USER_CHARGES


@<TRIPOS>ATOM
      1 C1         -9.2033   -0.3410   63.3927 C.3     1  ZINC000463474628   -0.1400
      2 C2         -8.2119   -0.7243   62.2922 C.3     1  ZINC000463474628   -0.1300
      3 C3         -8.5574    0.0326   61.0083 C.3     1  ZINC000463474628    0.1400
      4 H4         -7.9335   -0.3238   60.1887 H       1  ZINC000463474628    0.0800
      5 C5         -8.3373    1.5459   61.2158 C.3     1  ZINC000463474628   -0.1300
      6 C6         -9.5217    2.1791   60.4389 C.3     1  ZINC000463474628   -0.1300
      7 C7        -10.6503    1.1507   60.7001 C.3     1  ZINC000463474628    0.0900
      8 N8         -9.9767   -0.1641   60.6784 N.am    1  ZINC000463474628   -0.6100
      9 C9        -10.5664   -1.3444   60.4041 C.2     1  ZINC000463474628    0.5300
     10 O10        -9.9128   -2.3660   60.4151 O.2     1  ZINC000463474628   -0.5100
     11 C11       -12.0381   -1.3949   60.0837 C.3     1  ZINC000463474628   -0.1200
     12 H12       -12.3476   -0.4466   59.6443 H       1  ZINC000463474628    0.1000
     13 C13       -12.8321   -1.6462   61.3676 C.3     1  ZINC000463474628   -0.1000
     14 C14       -14.3287   -1.6650   61.0486 C.3     1  ZINC000463474628   -0.1300
     15 C15       -14.6233   -2.8040   60.0673 C.3     1  ZINC000463474628    0.0900
     16 N16       -13.7573   -2.6501   58.8905 N.am    1  ZINC000463474628   -0.6000
     17 C17       -14.2835   -2.6188   57.6500 C.2     1  ZINC000463474628    0.5700
     18 O18       -15.4853   -2.7184   57.4970 O.2     1  ZINC000463474628   -0.5200
     19 C19       -13.3993   -2.4633   56.4760 C.ar    1  ZINC000463474628   -0.1200
     20 C20       -12.7122   -3.5659   55.9653 C.ar    1  ZINC000463474628   -0.0800
     21 C21       -11.8885   -3.4146   54.8695 C.ar    1  ZINC000463474628   -0.1000
     22 C22       -11.7423   -2.1721   54.2761 C.ar    1  ZINC000463474628   -0.0700
     23 Br23      -10.6115   -1.9735   52.7736 Br      1  ZINC000463474628   -0.0400
     24 C24       -12.4214   -1.0744   54.7781 C.ar    1  ZINC000463474628   -0.0900
     25 C25       -13.2522   -1.2142   55.8696 C.ar    1  ZINC000463474628   -0.0300
     26 C26       -13.9903   -0.0188   56.4148 C.3     1  ZINC000463474628   -0.1300
     27 C27       -12.3066   -2.5303   59.0909 C.3     1  ZINC000463474628    0.1200
     28 H28        -8.8833    0.5892   63.8621 H       1  ZINC000463474628    0.0700
     29 H29       -10.1940   -0.2069   62.9585 H       1  ZINC000463474628    0.0600
     30 H30        -9.2388   -1.1324   64.1414 H       1  ZINC000463474628    0.0300
     31 H31        -7.2013   -0.4638   62.6069 H       1  ZINC000463474628    0.0600
     32 H32        -8.2699   -1.7971   62.1084 H       1  ZINC000463474628    0.0700
     33 H33        -8.3895    1.8017   62.2740 H       1  ZINC000463474628    0.0800
     34 H34        -7.3845    1.8591   60.7888 H       1  ZINC000463474628    0.0800
     35 H35        -9.7803    3.1555   60.8486 H       1  ZINC000463474628    0.0900
     36 H36        -9.2971    2.2508   59.3747 H       1  ZINC000463474628    0.0800
     37 H37       -11.1073    1.3281   61.6735 H       1  ZINC000463474628    0.0700
     38 H38       -11.4015    1.2035   59.9120 H       1  ZINC000463474628    0.0800
     39 H39       -12.5395   -2.6059   61.7936 H       1  ZINC000463474628    0.0800
     40 H40       -12.6237   -0.8522   62.0848 H       1  ZINC000463474628    0.0700
     41 H41       -14.8946   -1.8207   61.9671 H       1  ZINC000463474628    0.0800
     42 H42       -14.6170   -0.7144   60.5998 H       1  ZINC000463474628    0.0700
     43 H43       -14.4207   -3.7614   60.5473 H       1  ZINC000463474628    0.0800
     44 H44       -15.6682   -2.7606   59.7602 H       1  ZINC000463474628    0.1000
     45 H45       -12.8251   -4.5354   56.4276 H       1  ZINC000463474628    0.1400
     46 H46       -11.3561   -4.2668   54.4737 H       1  ZINC000463474628    0.1400
     47 H47       -12.3031   -0.1077   54.3112 H       1  ZINC000463474628    0.1400
     48 H48       -14.9933    0.0140   55.9893 H       1  ZINC000463474628    0.0700
     49 H49       -14.0583   -0.0975   57.4998 H       1  ZINC000463474628    0.0900
     50 H50       -13.4532    0.8919   56.1494 H       1  ZINC000463474628    0.0700
     51 H51       -11.8235   -2.3068   58.1397 H       1  ZINC000463474628    0.1000
     52 H52       -11.9146   -3.4652   59.4914 H       1  ZINC000463474628    0.0800
@<TRIPOS>BOND
     1     1     2    1
     2     1    28    1
     3     1    29    1
     4     1    30    1
     5     2     3    1
     6     2    31    1
     7     2    32    1
     8     3     4    1
     9     3     8    1
    10     3     5    1
    11     5     6    1
    12     5    33    1
    13     5    34    1
    14     6     7    1
    15     6    35    1
    16     6    36    1
    17     7     8    1
    18     7    37    1
    19     7    38    1
    20     8     9   am
    21     9    10    2
    22     9    11    1
    23    11    12    1
    24    11    27    1
    25    11    13    1
    26    13    14    1
    27    13    39    1
    28    13    40    1
    29    14    15    1
    30    14    41    1
    31    14    42    1
    32    15    16    1
    33    15    43    1
    34    15    44    1
    35    16    17   am
    36    16    27    1
    37    17    18    2
    38    17    19    1
    39    19    25   ar
    40    19    20   ar
    41    20    21   ar
    42    20    45    1
    43    21    22   ar
    44    21    46    1
    45    22    23    1
    46    22    24   ar
    47    24    25   ar
    48    24    47    1
    49    25    26    1
    50    26    48    1
    51    26    49    1
    52    26    50    1
    53    27    51    1
    54    27    52    1
@<TRIPOS>SUBSTRUCTURE
     1 ZINC000463474628        1 TEMP              0 ****  ****    0 ROOT


##########                                Name:    ZINC000001174632
##########                DOCK_Rotatable_Bonds:                   6
##########                         Heavy_Atoms:                  29
##########                    Molecular_Weight:             385.419
##########                DOCK_Rotatable_Bonds:                   6
##########                       Formal_Charge:           0.0400005
##########                     HBond_Acceptors:                   5
##########                        HBond_Donors:                   1
##########                         Heavy_Atoms:                  29
##########                          Grid_Score:          -30.401308
##########                     Grid_vdw_energy:          -28.819128
##########                      Grid_es_energy:           -1.582180
##########           Internal_energy_repulsive:           14.179749

@<TRIPOS>MOLECULE
ZINC000001174632
 48 51 1 0 0
SMALL
USER_CHARGES


@<TRIPOS>ATOM
      1 C1         -4.0321    2.3237   56.6035 C.3     1  ZINC000001174632    0.0400
      2 O2         -5.1879    2.9417   57.2280 O.3     1  ZINC000001174632   -0.3500
      3 C3         -6.3867    2.3710   56.9966 C.2     1  ZINC000001174632    0.5200
      4 O4         -6.4573    1.3511   56.3397 O.2     1  ZINC000001174632   -0.5200
      5 C5         -7.6116    2.9838   57.5401 C.ar    1  ZINC000001174632   -0.2000
      6 C6         -7.6189    4.3305   57.9114 C.ar    1  ZINC000001174632   -0.0200
      7 C7         -8.7681    4.8977   58.4186 C.ar    1  ZINC000001174632   -0.1800
      8 C8         -9.9187    4.1393   58.5630 C.ar    1  ZINC000001174632   -0.0300
      9 C9         -9.9280    2.8073   58.2012 C.ar    1  ZINC000001174632   -0.1900
     10 C10        -8.7812    2.2190   57.6826 C.ar    1  ZINC000001174632    0.2600
     11 N11        -8.7880    0.8792   57.3175 N.pl3   1  ZINC000001174632   -0.6500
     12 C12        -9.4370   -0.0413   58.0995 C.2     1  ZINC000001174632    0.2300
     13 C13       -10.4227   -0.9070   57.6658 C.2     1  ZINC000001174632   -0.1800
     14 C14       -10.9523   -0.9961   56.2869 C.ar    1  ZINC000001174632   -0.0600
     15 C15       -11.0089   -2.2302   55.6376 C.ar    1  ZINC000001174632   -0.0600
     16 C16       -11.5031   -2.3090   54.3524 C.ar    1  ZINC000001174632   -0.1500
     17 C17       -11.9434   -1.1630   53.7046 C.ar    1  ZINC000001174632    0.1400
     18 O18       -12.4298   -1.2450   52.4378 O.3     1  ZINC000001174632   -0.3200
     19 C19       -11.4883   -1.5168   51.3976 C.3     1  ZINC000001174632    0.0300
     20 C20       -11.8888    0.0664   54.3469 C.ar    1  ZINC000001174632   -0.2100
     21 C21       -11.4017    0.1528   55.6343 C.ar    1  ZINC000001174632   -0.0500
     22 C22       -10.8544   -1.7240   58.8070 C.2     1  ZINC000001174632    0.4500
     23 O23       -11.7058   -2.5913   58.7944 O.2     1  ZINC000001174632   -0.4100
     24 C24       -10.0511   -1.2886   59.9827 C.ar    1  ZINC000001174632   -0.1600
     25 C25       -10.0245   -1.6952   61.3034 C.ar    1  ZINC000001174632   -0.0500
     26 C26        -9.1466   -1.0905   62.1976 C.ar    1  ZINC000001174632   -0.1100
     27 C27        -8.3036   -0.0873   61.7711 C.ar    1  ZINC000001174632   -0.0900
     28 C28        -8.3217    0.3296   60.4454 C.ar    1  ZINC000001174632   -0.0800
     29 C29        -9.1878   -0.2697   59.5427 C.ar    1  ZINC000001174632   -0.0600
     30 H30        -4.1563    2.3322   55.5205 H       1  ZINC000001174632    0.0700
     31 H31        -3.1337    2.8803   56.8704 H       1  ZINC000001174632    0.1100
     32 H32        -3.9384    1.2946   56.9503 H       1  ZINC000001174632    0.0700
     33 H33        -6.7249    4.9264   57.8014 H       1  ZINC000001174632    0.1400
     34 H34        -8.7716    5.9389   58.7055 H       1  ZINC000001174632    0.1300
     35 H35       -10.8140    4.5932   58.9614 H       1  ZINC000001174632    0.1300
     36 H36       -10.8287    2.2229   58.3176 H       1  ZINC000001174632    0.1300
     37 H37        -8.3336    0.5945   56.5092 H       1  ZINC000001174632    0.4300
     38 H38       -10.6659   -3.1222   56.1407 H       1  ZINC000001174632    0.1300
     39 H39       -11.5473   -3.2636   53.8493 H       1  ZINC000001174632    0.1300
     40 H40       -10.7369   -0.7277   51.3724 H       1  ZINC000001174632    0.0600
     41 H41       -11.0034   -2.4744   51.5878 H       1  ZINC000001174632    0.0600
     42 H42       -12.0066   -1.5558   50.4396 H       1  ZINC000001174632    0.1000
     43 H43       -12.2319    0.9557   53.8393 H       1  ZINC000001174632    0.1300
     44 H44       -11.3599    1.1096   56.1336 H       1  ZINC000001174632    0.1300
     45 H45       -10.6844   -2.4808   61.6409 H       1  ZINC000001174632    0.1400
     46 H46        -9.1259   -1.4083   63.2296 H       1  ZINC000001174632    0.1400
     47 H47        -7.6255    0.3780   62.4711 H       1  ZINC000001174632    0.1400
     48 H48        -7.6586    1.1164   60.1171 H       1  ZINC000001174632    0.1300
@<TRIPOS>BOND
     1     1     2    1
     2     1    30    1
     3     1    31    1
     4     1    32    1
     5     2     3    1
     6     3     4    2
     7     3     5    1
     8     5    10   ar
     9     5     6   ar
    10     6     7   ar
    11     6    33    1
    12     7     8   ar
    13     7    34    1
    14     8     9   ar
    15     8    35    1
    16     9    10   ar
    17     9    36    1
    18    10    11    1
    19    11    12    1
    20    11    37    1
    21    12    29    1
    22    12    13    2
    23    13    14    1
    24    13    22    1
    25    14    21   ar
    26    14    15   ar
    27    15    16   ar
    28    15    38    1
    29    16    17   ar
    30    16    39    1
    31    17    18    1
    32    17    20   ar
    33    18    19    1
    34    19    40    1
    35    19    41    1
    36    19    42    1
    37    20    21   ar
    38    20    43    1
    39    21    44    1
    40    22    23    2
    41    22    24    1
    42    24    29   ar
    43    24    25   ar
    44    25    26   ar
    45    25    45    1
    46    26    27   ar
    47    26    46    1
    48    27    28   ar
    49    27    47    1
    50    28    29   ar
    51    28    48    1
@<TRIPOS>SUBSTRUCTURE
     1 ZINC000001174632        1 TEMP              0 ****  ****    0 ROOT


##########                                Name:    ZINC000171059239
##########                DOCK_Rotatable_Bonds:                   8
##########                         Heavy_Atoms:                  25
##########                    Molecular_Weight:              333.39
##########                DOCK_Rotatable_Bonds:                   8
##########                       Formal_Charge:         1.10269e-06
##########                     HBond_Acceptors:                   5
##########                        HBond_Donors:                   4
##########                         Heavy_Atoms:                  25
##########                          Grid_Score:          -30.397434
##########                     Grid_vdw_energy:          -28.014799
##########                      Grid_es_energy:           -2.382634
##########           Internal_energy_repulsive:            7.379222

@<TRIPOS>MOLECULE
ZINC000171059239
 44 46 1 0 0
SMALL
USER_CHARGES


@<TRIPOS>ATOM
      1 N1         -3.5483    4.3369   57.5574 N.am    1  ZINC000171059239   -0.8500
      2 C2         -3.4567    3.7925   56.3280 C.2     1  ZINC000171059239    0.5600
      3 O3         -2.7242    2.8413   56.1375 O.2     1  ZINC000171059239   -0.5400
      4 C4         -4.2470    4.3523   55.2109 C.ar    1  ZINC000171059239   -0.1400
      5 C5         -5.2746    5.2614   55.4659 C.ar    1  ZINC000171059239   -0.0900
      6 C6         -6.0081    5.7805   54.4189 C.ar    1  ZINC000171059239   -0.1200
      7 C7         -5.7271    5.4010   53.1185 C.ar    1  ZINC000171059239   -0.0800
      8 C8         -4.7098    4.4996   52.8587 C.ar    1  ZINC000171059239   -0.0900
      9 C9         -4.4110    4.0917   51.4391 C.3     1  ZINC000171059239   -0.0900
     10 C10        -3.1414    4.7995   50.9616 C.3     1  ZINC000171059239    0.1400
     11 N11        -2.7430    4.2612   49.6586 N.am    1  ZINC000171059239   -0.7400
     12 C12        -1.7636    3.3385   49.5817 C.2     1  ZINC000171059239    0.7000
     13 O13        -1.2118    2.9518   50.5937 O.2     1  ZINC000171059239   -0.5700
     14 N14        -1.3959    2.8444   48.3828 N.am    1  ZINC000171059239   -0.6800
     15 C15        -0.3813    1.8885   48.3031 C.ar    1  ZINC000171059239    0.1700
     16 C16        -0.6904    0.5141   48.3830 C.ar    1  ZINC000171059239   -0.0600
     17 C17        -2.0134    0.0733   48.5433 C.ar    1  ZINC000171059239   -0.1100
     18 C18        -2.2751   -1.2609   48.6164 C.ar    1  ZINC000171059239   -0.1100
     19 C19        -1.2475   -2.1985   48.5347 C.ar    1  ZINC000171059239   -0.1200
     20 C20         0.0469   -1.8075   48.3792 C.ar    1  ZINC000171059239   -0.1000
     21 C21         0.3552   -0.4383   48.2994 C.ar    1  ZINC000171059239   -0.0400
     22 C22         1.6799    0.0015   48.1384 C.ar    1  ZINC000171059239   -0.1200
     23 C23         1.9495    1.3341   48.0637 C.ar    1  ZINC000171059239   -0.0900
     24 C24         0.9304    2.2786   48.1399 C.ar    1  ZINC000171059239   -0.1200
     25 C25        -3.9648    3.9781   53.8959 C.ar    1  ZINC000171059239   -0.0500
     26 H26        -3.0306    3.9689   58.2906 H       1  ZINC000171059239    0.4100
     27 H27        -4.1289    5.0992   57.7083 H       1  ZINC000171059239    0.4000
     28 H28        -5.4955    5.5578   56.4807 H       1  ZINC000171059239    0.1300
     29 H29        -6.8036    6.4841   54.6148 H       1  ZINC000171059239    0.1300
     30 H30        -6.3044    5.8100   52.3025 H       1  ZINC000171059239    0.1300
     31 H31        -4.2641    3.0125   51.3944 H       1  ZINC000171059239    0.0800
     32 H32        -5.2464    4.3716   50.7972 H       1  ZINC000171059239    0.0800
     33 H33        -3.3341    5.8684   50.8695 H       1  ZINC000171059239    0.0700
     34 H34        -2.3408    4.6353   51.6828 H       1  ZINC000171059239    0.0700
     35 H35        -3.1840    4.5688   48.8512 H       1  ZINC000171059239    0.4000
     36 H36        -1.8361    3.1529   47.5754 H       1  ZINC000171059239    0.4100
     37 H37        -2.8197    0.7888   48.6088 H       1  ZINC000171059239    0.1200
     38 H38        -3.2939   -1.5974   48.7397 H       1  ZINC000171059239    0.1200
     39 H39        -1.4815   -3.2510   48.5961 H       1  ZINC000171059239    0.1200
     40 H40         0.8332   -2.5454   48.3179 H       1  ZINC000171059239    0.1300
     41 H41         2.4838   -0.7169   48.0743 H       1  ZINC000171059239    0.1300
     42 H42         2.9706    1.6633   47.9399 H       1  ZINC000171059239    0.1300
     43 H43         1.1709    3.3297   48.0776 H       1  ZINC000171059239    0.1400
     44 H44        -3.1710    3.2749   53.6918 H       1  ZINC000171059239    0.1400
@<TRIPOS>BOND
     1     1     2   am
     2     1    26    1
     3     1    27    1
     4     2     3    2
     5     2     4    1
     6     4    25   ar
     7     4     5   ar
     8     5     6   ar
     9     5    28    1
    10     6     7   ar
    11     6    29    1
    12     7     8   ar
    13     7    30    1
    14     8     9    1
    15     8    25   ar
    16     9    10    1
    17     9    31    1
    18     9    32    1
    19    10    11    1
    20    10    33    1
    21    10    34    1
    22    11    12   am
    23    11    35    1
    24    12    13    2
    25    12    14   am
    26    14    15    1
    27    14    36    1
    28    15    24   ar
    29    15    16   ar
    30    16    21   ar
    31    16    17   ar
    32    17    18   ar
    33    17    37    1
    34    18    19   ar
    35    18    38    1
    36    19    20   ar
    37    19    39    1
    38    20    21   ar
    39    20    40    1
    40    21    22   ar
    41    22    23   ar
    42    22    41    1
    43    23    24   ar
    44    23    42    1
    45    24    43    1
    46    25    44    1
@<TRIPOS>SUBSTRUCTURE
     1 ZINC000171059239        1 TEMP              0 ****  ****    0 ROOT


##########                                Name:    ZINC001015666108
##########                DOCK_Rotatable_Bonds:                   7
##########                         Heavy_Atoms:                  25
##########                    Molecular_Weight:             346.429
##########                DOCK_Rotatable_Bonds:                   7
##########                       Formal_Charge:          -0.0199997
##########                     HBond_Acceptors:                   7
##########                        HBond_Donors:                   1
##########                         Heavy_Atoms:                  25
##########                          Grid_Score:          -30.383522
##########                     Grid_vdw_energy:          -30.604439
##########                      Grid_es_energy:            0.220917
##########           Internal_energy_repulsive:           15.793196

@<TRIPOS>MOLECULE
ZINC001015666108
 51 53 1 0 0
SMALL
USER_CHARGES


@<TRIPOS>ATOM
      1 C1         -1.9491    3.5803   57.0806 C.3     1  ZINC001015666108   -0.1400
      2 C2         -1.9594    3.0412   55.6487 C.3     1  ZINC001015666108   -0.0700
      3 C3         -0.6082    3.2624   55.0190 C.2     1  ZINC001015666108   -0.0700
      4 C4         -0.3509    3.4733   53.6947 C.2     1  ZINC001015666108   -0.0900
      5 C5         -1.3481    3.5248   52.6206 C.2     1  ZINC001015666108    0.6100
      6 O6         -2.5288    3.3830   52.8792 O.2     1  ZINC001015666108   -0.5100
      7 N7         -0.9571    3.7294   51.3472 N.am    1  ZINC001015666108   -0.7200
      8 C8         -1.9531    3.7791   50.2740 C.3     1  ZINC001015666108    0.1400
      9 H9         -2.9067    4.1393   50.6600 H       1  ZINC001015666108    0.1100
     10 C10        -1.4602    4.6903   49.1264 C.3     1  ZINC001015666108   -0.1300
     11 C11        -0.8542    3.6814   48.1189 C.3     1  ZINC001015666108    0.0300
     12 N12        -1.7749    2.5192   48.2061 N.3     1  ZINC001015666108   -0.5100
     13 C13        -1.1297    1.2977   47.7064 C.3     1  ZINC001015666108    0.1700
     14 H14        -0.2677    1.0610   48.3300 H       1  ZINC001015666108    0.0900
     15 C15        -2.1269    0.1383   47.7537 C.3     1  ZINC001015666108   -0.1500
     16 C16        -0.6775    1.5138   46.2852 C.2     1  ZINC001015666108    0.1900
     17 N17         0.5088    1.9139   45.8955 N.2     1  ZINC001015666108   -0.4800
     18 C18         0.4514    1.9626   44.5526 C.2     1  ZINC001015666108    0.1800
     19 C19         1.5689    2.3670   43.6262 C.3     1  ZINC001015666108    0.0000
     20 C20         2.1709    1.1189   42.9777 C.3     1  ZINC001015666108   -0.1500
     21 C21         1.0201    3.2926   42.5385 C.3     1  ZINC001015666108   -0.1500
     22 N22        -0.7447    1.5963   44.2008 N.2     1  ZINC001015666108   -0.3800
     23 O23        -1.4073    1.3286   45.1810 O.3     1  ZINC001015666108    0.1000
     24 C24        -2.1249    2.3866   49.6393 C.3     1  ZINC001015666108    0.0300
     25 O25         0.9815    3.6259   53.5474 O.3     1  ZINC001015666108   -0.1700
     26 C26         1.5761    3.5175   54.7425 C.2     1  ZINC001015666108    0.0000
     27 C27         0.6290    3.2976   55.6810 C.2     1  ZINC001015666108   -0.2200
     28 H28        -2.9264    3.4204   57.5360 H       1  ZINC001015666108    0.0600
     29 H29        -1.1882    3.0576   57.6600 H       1  ZINC001015666108    0.0600
     30 H30        -1.7254    4.6470   57.0656 H       1  ZINC001015666108    0.0500
     31 H31        -2.1831    1.9745   55.6636 H       1  ZINC001015666108    0.0900
     32 H32        -2.7203    3.5640   55.0692 H       1  ZINC001015666108    0.0700
     33 H33        -0.0161    3.8436   51.1412 H       1  ZINC001015666108    0.4000
     34 H34        -2.2940    5.2302   48.6774 H       1  ZINC001015666108    0.0900
     35 H35        -0.6986    5.3831   49.4841 H       1  ZINC001015666108    0.0800
     36 H36        -0.8539    4.0971   47.1112 H       1  ZINC001015666108    0.0800
     37 H37         0.1542    3.3967   48.4189 H       1  ZINC001015666108    0.0500
     38 H38        -2.9891    0.3750   47.1301 H       1  ZINC001015666108    0.0800
     39 H39        -1.6482   -0.7680   47.3829 H       1  ZINC001015666108    0.0700
     40 H40        -2.4540   -0.0181   48.7816 H       1  ZINC001015666108    0.0800
     41 H41         2.3396    2.8895   44.1929 H       1  ZINC001015666108    0.1000
     42 H42         1.4002    0.5963   42.4110 H       1  ZINC001015666108    0.0600
     43 H43         2.9792    1.4113   42.3076 H       1  ZINC001015666108    0.0700
     44 H44         2.5619    0.4594   43.7525 H       1  ZINC001015666108    0.0600
     45 H45         0.2494    2.7702   41.9717 H       1  ZINC001015666108    0.0600
     46 H46         0.5914    4.1819   43.0005 H       1  ZINC001015666108    0.0600
     47 H47         1.8285    3.5851   41.8684 H       1  ZINC001015666108    0.0700
     48 H48        -1.4552    1.6741   50.1207 H       1  ZINC001015666108    0.0600
     49 H49        -3.1584    2.0552   49.7400 H       1  ZINC001015666108    0.1000
     50 H50         2.6374    3.5968   54.9265 H       1  ZINC001015666108    0.2100
     51 H51         0.7937    3.1670   56.7404 H       1  ZINC001015666108    0.1600
@<TRIPOS>BOND
     1     1     2    1
     2     1    28    1
     3     1    29    1
     4     1    30    1
     5     2     3    1
     6     2    31    1
     7     2    32    1
     8     3    27    1
     9     3     4    2
    10     4     5    1
    11     4    25    1
    12     5     6    2
    13     5     7   am
    14     7     8    1
    15     7    33    1
    16     8     9    1
    17     8    24    1
    18     8    10    1
    19    10    11    1
    20    10    34    1
    21    10    35    1
    22    11    12    1
    23    11    36    1
    24    11    37    1
    25    12    13    1
    26    12    24    1
    27    13    14    1
    28    13    15    1
    29    13    16    1
    30    15    38    1
    31    15    39    1
    32    15    40    1
    33    16    23    1
    34    16    17    2
    35    17    18    1
    36    18    19    1
    37    18    22    2
    38    19    20    1
    39    19    21    1
    40    19    41    1
    41    20    42    1
    42    20    43    1
    43    20    44    1
    44    21    45    1
    45    21    46    1
    46    21    47    1
    47    22    23    1
    48    24    48    1
    49    24    49    1
    50    25    26    1
    51    26    27    2
    52    26    50    1
    53    27    51    1
@<TRIPOS>SUBSTRUCTURE
     1 ZINC001015666108        1 TEMP              0 ****  ****    0 ROOT


##########                                Name:    ZINC000898967786
##########                DOCK_Rotatable_Bonds:                   5
##########                         Heavy_Atoms:                  25
##########                    Molecular_Weight:             356.448
##########                DOCK_Rotatable_Bonds:                   5
##########                       Formal_Charge:        -2.38419e-07
##########                     HBond_Acceptors:                   7
##########                        HBond_Donors:                   1
##########                         Heavy_Atoms:                  25
##########                          Grid_Score:          -30.376854
##########                     Grid_vdw_energy:          -30.156998
##########                      Grid_es_energy:           -0.219856
##########           Internal_energy_repulsive:           14.412738

@<TRIPOS>MOLECULE
ZINC000898967786
 45 48 1 0 0
SMALL
USER_CHARGES


@<TRIPOS>ATOM
      1 C1          2.0254    2.8077   47.8083 C.3     1  ZINC000898967786   -0.0800
      2 C2          1.0798    1.6389   47.9125 C.2     1  ZINC000898967786    0.0900
      3 C3         -0.2692    1.7144   47.9152 C.2     1  ZINC000898967786   -0.1000
      4 C4         -1.0949    2.9711   47.8158 C.3     1  ZINC000898967786    0.2200
      5 N5         -0.9522    3.7481   49.0495 N.am    1  ZINC000898967786   -0.7400
      6 C6         -1.5243    3.3132   50.1898 C.2     1  ZINC000898967786    0.7100
      7 O7         -2.1587    2.2761   50.1945 O.2     1  ZINC000898967786   -0.5800
      8 N8         -1.3929    4.0281   51.3248 N.am    1  ZINC000898967786   -0.6300
      9 C9         -0.6298    5.2861   51.3435 C.3     1  ZINC000898967786    0.0900
     10 C10         0.3719    5.2268   52.5023 C.3     1  ZINC000898967786    0.0500
     11 O11        -0.3201    4.8860   53.7059 O.3     1  ZINC000898967786   -0.3700
     12 C12        -0.9396    3.5979   53.6802 C.3     1  ZINC000898967786    0.1400
     13 H13        -0.1878    2.8364   53.4731 H       1  ZINC000898967786    0.0700
     14 C14        -1.5819    3.3214   55.0151 C.2     1  ZINC000898967786   -0.1100
     15 C15        -2.8419    3.6626   55.2894 C.2     1  ZINC000898967786   -0.1800
     16 S16        -3.2381    3.1826   56.9344 S.3     1  ZINC000898967786    0.1100
     17 C17        -1.6225    2.5261   57.1639 C.2     1  ZINC000898967786   -0.2100
     18 C18        -0.9108    2.6890   56.0475 C.2     1  ZINC000898967786   -0.1300
     19 C19        -2.0134    3.5767   52.5805 C.3     1  ZINC000898967786    0.0900
     20 N20        -0.7453    0.4363   48.0247 N.pl3   1  ZINC000898967786   -0.3500
     21 C21        -2.0088   -0.0771   48.0762 C.2     1  ZINC000898967786    0.0600
     22 C22        -2.2060   -1.4074   48.1885 C.2     1  ZINC000898967786   -0.1400
     23 C23        -1.1098   -2.2833   48.2545 C.2     1  ZINC000898967786   -0.1000
     24 C24         0.1548   -1.7849   48.2043 C.2     1  ZINC000898967786   -0.0800
     25 C25         0.3443   -0.3933   48.0864 C.2     1  ZINC000898967786    0.2400
     26 N26         1.4352    0.3559   48.0118 N.2     1  ZINC000898967786   -0.4900
     27 H27         2.2426    3.0068   46.7588 H       1  ZINC000898967786    0.0800
     28 H28         1.5659    3.6880   48.2576 H       1  ZINC000898967786    0.0700
     29 H29         2.9517    2.5734   48.3329 H       1  ZINC000898967786    0.0800
     30 H30        -0.7507    3.5661   46.9698 H       1  ZINC000898967786    0.1000
     31 H31        -2.1426    2.7070   47.6719 H       1  ZINC000898967786    0.0700
     32 H32        -0.4460    4.5755   49.0457 H       1  ZINC000898967786    0.4000
     33 H33        -0.0948    5.4050   50.4014 H       1  ZINC000898967786    0.1100
     34 H34        -1.3097    6.1257   51.4887 H       1  ZINC000898967786    0.0800
     35 H35         1.1286    4.4711   52.2910 H       1  ZINC000898967786    0.0600
     36 H36         0.8504    6.1991   52.6202 H       1  ZINC000898967786    0.1100
     37 H37        -3.5156    4.1581   54.6062 H       1  ZINC000898967786    0.1700
     38 H38        -1.2632    2.0585   58.0686 H       1  ZINC000898967786    0.1700
     39 H39         0.1138    2.3598   55.9586 H       1  ZINC000898967786    0.1400
     40 H40        -2.8310    4.2441   52.8529 H       1  ZINC000898967786    0.0800
     41 H41        -2.3925    2.5623   52.4569 H       1  ZINC000898967786    0.0900
     42 H42        -2.8587    0.5875   48.0268 H       1  ZINC000898967786    0.1600
     43 H43        -3.2112   -1.8004   48.2281 H       1  ZINC000898967786    0.1500
     44 H44        -1.2704   -3.3475   48.3451 H       1  ZINC000898967786    0.1500
     45 H45         1.0052   -2.4488   48.2545 H       1  ZINC000898967786    0.1500
@<TRIPOS>BOND
     1     1     2    1
     2     1    27    1
     3     1    28    1
     4     1    29    1
     5     2    26    1
     6     2     3    2
     7     3     4    1
     8     3    20    1
     9     4     5    1
    10     4    30    1
    11     4    31    1
    12     5     6   am
    13     5    32    1
    14     6     7    2
    15     6     8   am
    16     8    19    1
    17     8     9    1
    18     9    10    1
    19     9    33    1
    20     9    34    1
    21    10    11    1
    22    10    35    1
    23    10    36    1
    24    11    12    1
    25    12    13    1
    26    12    14    1
    27    12    19    1
    28    14    18    1
    29    14    15    2
    30    15    16    1
    31    15    37    1
    32    16    17    1
    33    17    18    2
    34    17    38    1
    35    18    39    1
    36    19    40    1
    37    19    41    1
    38    20    25    1
    39    20    21    1
    40    21    22    2
    41    21    42    1
    42    22    23    1
    43    22    43    1
    44    23    24    2
    45    23    44    1
    46    24    25    1
    47    24    45    1
    48    25    26    2
@<TRIPOS>SUBSTRUCTURE
     1 ZINC000898967786        1 TEMP              0 ****  ****    0 ROOT


##########                                Name:    ZINC000518242403
##########                DOCK_Rotatable_Bonds:                   6
##########                         Heavy_Atoms:                  27
##########                    Molecular_Weight:             370.405
##########                DOCK_Rotatable_Bonds:                   6
##########                       Formal_Charge:          -0.0200004
##########                     HBond_Acceptors:                   7
##########                        HBond_Donors:                   1
##########                         Heavy_Atoms:                  27
##########                          Grid_Score:          -30.340191
##########                     Grid_vdw_energy:          -29.669249
##########                      Grid_es_energy:           -0.670943
##########           Internal_energy_repulsive:           15.439117

@<TRIPOS>MOLECULE
ZINC000518242403
 49 52 1 0 0
SMALL
USER_CHARGES


@<TRIPOS>ATOM
      1 C1         -4.7952    6.0729   51.1154 C.3     1  ZINC000518242403   -0.1800
      2 C2         -3.2752    6.2475   51.1022 C.3     1  ZINC000518242403    0.1000
      3 N3         -2.6479    5.1171   51.7911 N.am    1  ZINC000518242403   -0.6200
      4 C4         -2.4227    5.1741   53.2376 C.3     1  ZINC000518242403    0.1500
      5 C5         -3.2324    4.0720   53.9236 C.3     1  ZINC000518242403    0.0300
      6 H6         -2.8553    3.0955   53.6196 H       1  ZINC000518242403    0.0900
      7 C7         -3.1193    4.2188   55.4471 C.3     1  ZINC000518242403    0.0300
      8 O8         -3.8977    3.1830   56.0563 O.3     1  ZINC000518242403   -0.3000
      9 C9         -5.1480    2.9837   55.5569 C.ar    1  ZINC000518242403    0.0500
     10 C10        -6.0745    2.2733   56.3051 C.ar    1  ZINC000518242403   -0.1100
     11 C11        -7.3474    2.0600   55.8098 C.ar    1  ZINC000518242403   -0.1200
     12 C12        -7.7001    2.5540   54.5681 C.ar    1  ZINC000518242403   -0.1200
     13 C13        -6.7817    3.2644   53.8178 C.ar    1  ZINC000518242403   -0.1100
     14 C14        -5.5036    3.4829   54.3091 C.ar    1  ZINC000518242403    0.0500
     15 O15        -4.6126    4.1905   53.5619 O.3     1  ZINC000518242403   -0.3000
     16 C16        -2.2779    4.0244   51.0942 C.2     1  ZINC000518242403    0.7100
     17 O17        -1.7586    3.0854   51.6662 O.2     1  ZINC000518242403   -0.5700
     18 N18        -2.4835    3.9725   49.7632 N.am    1  ZINC000518242403   -0.6800
     19 C19        -2.0988    2.8365   49.0385 C.ar    1  ZINC000518242403    0.1700
     20 C20        -2.6900    1.6096   49.3061 C.ar    1  ZINC000518242403   -0.1000
     21 C21        -2.3097    0.4871   48.5893 C.ar    1  ZINC000518242403    0.0500
     22 C22        -1.3342    0.5923   47.6008 C.ar    1  ZINC000518242403    0.0200
     23 C23        -0.7461    1.8188   47.3373 C.ar    1  ZINC000518242403   -0.0800
     24 C24        -1.1304    2.9392   48.0490 C.ar    1  ZINC000518242403   -0.1000
     25 C25        -0.4884    4.2716   47.7596 C.3     1  ZINC000518242403   -0.1100
     26 O26        -1.1403   -0.6410   47.0466 O.3     1  ZINC000518242403   -0.3100
     27 C27        -1.7096   -1.5762   47.9818 C.3     1  ZINC000518242403    0.2100
     28 O28        -2.7270   -0.8110   48.6543 O.3     1  ZINC000518242403   -0.3100
     29 H29        -5.0588    5.1456   50.6066 H       1  ZINC000518242403    0.0600
     30 H30        -5.1476    6.0346   52.1461 H       1  ZINC000518242403    0.0600
     31 H31        -5.2620    6.9140   50.6028 H       1  ZINC000518242403    0.0700
     32 H32        -2.9229    6.2857   50.0714 H       1  ZINC000518242403    0.1000
     33 H33        -3.0116    7.1748   51.6109 H       1  ZINC000518242403    0.0700
     34 H34        -1.3627    5.0297   53.4463 H       1  ZINC000518242403    0.1100
     35 H35        -2.7385    6.1462   53.6164 H       1  ZINC000518242403    0.0900
     36 H36        -2.0766    4.1213   55.7494 H       1  ZINC000518242403    0.1300
     37 H37        -3.5013    5.1932   55.7518 H       1  ZINC000518242403    0.0800
     38 H38        -5.8013    1.8862   57.2756 H       1  ZINC000518242403    0.1300
     39 H39        -8.0675    1.5066   56.3942 H       1  ZINC000518242403    0.1300
     40 H40        -8.6948    2.3846   54.1833 H       1  ZINC000518242403    0.1300
     41 H41        -7.0598    3.6493   52.8478 H       1  ZINC000518242403    0.1300
     42 H42        -2.8978    4.7216   49.3069 H       1  ZINC000518242403    0.4100
     43 H43        -3.4460    1.5300   50.0732 H       1  ZINC000518242403    0.1500
     44 H44         0.0104    1.9004   46.5709 H       1  ZINC000518242403    0.1400
     45 H45        -1.0585    4.7897   46.9884 H       1  ZINC000518242403    0.0800
     46 H46        -0.4756    4.8737   48.6682 H       1  ZINC000518242403    0.0700
     47 H47         0.5330    4.1151   47.4131 H       1  ZINC000518242403    0.0800
     48 H48        -2.1517   -2.4226   47.4560 H       1  ZINC000518242403    0.1300
     49 H49        -0.9547   -1.9164   48.6907 H       1  ZINC000518242403    0.0900
@<TRIPOS>BOND
     1     1     2    1
     2     1    29    1
     3     1    30    1
     4     1    31    1
     5     2     3    1
     6     2    32    1
     7     2    33    1
     8     3     4    1
     9     3    16   am
    10     4     5    1
    11     4    34    1
    12     4    35    1
    13     5     6    1
    14     5    15    1
    15     5     7    1
    16     7     8    1
    17     7    36    1
    18     7    37    1
    19     8     9    1
    20     9    14   ar
    21     9    10   ar
    22    10    11   ar
    23    10    38    1
    24    11    12   ar
    25    11    39    1
    26    12    13   ar
    27    12    40    1
    28    13    14   ar
    29    13    41    1
    30    14    15    1
    31    16    17    2
    32    16    18   am
    33    18    19    1
    34    18    42    1
    35    19    24   ar
    36    19    20   ar
    37    20    21   ar
    38    20    43    1
    39    21    28    1
    40    21    22   ar
    41    22    23   ar
    42    22    26    1
    43    23    24   ar
    44    23    44    1
    45    24    25    1
    46    25    45    1
    47    25    46    1
    48    25    47    1
    49    26    27    1
    50    27    28    1
    51    27    48    1
    52    27    49    1
@<TRIPOS>SUBSTRUCTURE
     1 ZINC000518242403        1 TEMP              0 ****  ****    0 ROOT


##########                                Name:    ZINC000011157684
##########                DOCK_Rotatable_Bonds:                   7
##########                         Heavy_Atoms:                  25
##########                    Molecular_Weight:             374.866
##########                DOCK_Rotatable_Bonds:                   7
##########                       Formal_Charge:           0.0400001
##########                     HBond_Acceptors:                   6
##########                        HBond_Donors:                   2
##########                         Heavy_Atoms:                  25
##########                          Grid_Score:          -30.331255
##########                     Grid_vdw_energy:          -30.451015
##########                      Grid_es_energy:            0.119760
##########           Internal_energy_repulsive:            8.774478

@<TRIPOS>MOLECULE
ZINC000011157684
 41 43 1 0 0
SMALL
USER_CHARGES


@<TRIPOS>ATOM
      1 O1         -2.8018    1.6693   48.7777 O.2     1  ZINC000011157684   -0.5200
      2 C2         -2.0058    2.5839   48.7528 C.2     1  ZINC000011157684    0.5100
      3 C3         -2.0099    3.6164   49.8505 C.3     1  ZINC000011157684    0.1000
      4 N4         -2.1354    2.9488   51.1484 N.pl3   1  ZINC000011157684   -0.7300
      5 C5         -3.0762    3.4013   52.0798 C.ar    1  ZINC000011157684    0.2200
      6 C6         -4.4159    3.4899   51.7276 C.ar    1  ZINC000011157684   -0.1600
      7 C7         -5.3436    3.9365   52.6489 C.ar    1  ZINC000011157684   -0.0900
      8 C8         -4.9383    4.2963   53.9228 C.ar    1  ZINC000011157684    0.0500
      9 F9         -5.8473    4.7333   54.8216 F       1  ZINC000011157684   -0.1400
     10 C10        -3.6024    4.2086   54.2774 C.ar    1  ZINC000011157684   -0.0900
     11 C11        -2.6717    3.7575   53.3610 C.ar    1  ZINC000011157684   -0.0900
     12 Cl12       -0.9972    3.6476   53.8055 Cl      1  ZINC000011157684   -0.0500
     13 N13        -1.1138    2.6739   47.7464 N.am    1  ZINC000011157684   -0.7200
     14 C14        -1.1098    1.6701   46.6794 C.3     1  ZINC000011157684    0.2600
     15 H15        -2.1076    1.5955   46.2468 H       1  ZINC000011157684    0.1200
     16 C16        -0.7077    0.3337   47.2481 C.2     1  ZINC000011157684   -0.1900
     17 C17         0.5314   -0.0095   47.6030 C.2     1  ZINC000011157684   -0.1200
     18 C18         0.6602   -1.2940   48.1029 C.2     1  ZINC000011157684   -0.1300
     19 C19        -0.4742   -1.9937   48.1538 C.2     1  ZINC000011157684   -0.2100
     20 S20        -1.8020   -1.0092   47.5526 S.3     1  ZINC000011157684    0.1100
     21 C21        -0.1283    2.0770   45.6106 C.ar    1  ZINC000011157684   -0.0900
     22 C22         0.9651    2.8572   45.9373 C.ar    1  ZINC000011157684   -0.1100
     23 C23         1.8654    3.2304   44.9569 C.ar    1  ZINC000011157684   -0.1100
     24 C24         1.6726    2.8231   43.6501 C.ar    1  ZINC000011157684   -0.1100
     25 C25         0.5797    2.0422   43.3237 C.ar    1  ZINC000011157684   -0.1100
     26 C26        -0.3183    1.6654   44.3047 C.ar    1  ZINC000011157684   -0.1000
     27 H27        -1.0782    4.1816   49.8213 H       1  ZINC000011157684    0.1000
     28 H28        -2.8509    4.2949   49.7081 H       1  ZINC000011157684    0.1000
     29 H29        -1.5662    2.1929   51.3621 H       1  ZINC000011157684    0.4200
     30 H30        -4.7329    3.2100   50.7338 H       1  ZINC000011157684    0.1400
     31 H31        -6.3860    4.0054   52.3750 H       1  ZINC000011157684    0.1400
     32 H32        -3.2883    4.4895   55.2718 H       1  ZINC000011157684    0.1500
     33 H33        -0.4746    3.4032   47.7287 H       1  ZINC000011157684    0.4000
     34 H34         1.3705    0.6635   47.5073 H       1  ZINC000011157684    0.1400
     35 H35         1.6076   -1.6989   48.4266 H       1  ZINC000011157684    0.1400
     36 H36        -0.5644   -3.0083   48.5128 H       1  ZINC000011157684    0.1700
     37 H37         1.1158    3.1754   46.9582 H       1  ZINC000011157684    0.1200
     38 H38         2.7193    3.8405   45.2121 H       1  ZINC000011157684    0.1300
     39 H39         2.3757    3.1154   42.8841 H       1  ZINC000011157684    0.1300
     40 H40         0.4289    1.7243   42.3026 H       1  ZINC000011157684    0.1300
     41 H41        -1.1722    1.0553   44.0496 H       1  ZINC000011157684    0.1300
@<TRIPOS>BOND
     1     1     2    2
     2     2     3    1
     3     2    13   am
     4     3     4    1
     5     3    27    1
     6     3    28    1
     7     4     5    1
     8     4    29    1
     9     5    11   ar
    10     5     6   ar
    11     6     7   ar
    12     6    30    1
    13     7     8   ar
    14     7    31    1
    15     8     9    1
    16     8    10   ar
    17    10    11   ar
    18    10    32    1
    19    11    12    1
    20    13    14    1
    21    13    33    1
    22    14    15    1
    23    14    16    1
    24    14    21    1
    25    16    20    1
    26    16    17    2
    27    17    18    1
    28    17    34    1
    29    18    19    2
    30    18    35    1
    31    19    20    1
    32    19    36    1
    33    21    26   ar
    34    21    22   ar
    35    22    23   ar
    36    22    37    1
    37    23    24   ar
    38    23    38    1
    39    24    25   ar
    40    24    39    1
    41    25    26   ar
    42    25    40    1
    43    26    41    1
@<TRIPOS>SUBSTRUCTURE
     1 ZINC000011157684        1 TEMP              0 ****  ****    0 ROOT


##########                                Name:    ZINC000450219577
##########                DOCK_Rotatable_Bonds:                   8
##########                         Heavy_Atoms:                  26
##########                    Molecular_Weight:             353.421
##########                DOCK_Rotatable_Bonds:                   8
##########                       Formal_Charge:          -0.0199997
##########                     HBond_Acceptors:                   6
##########                        HBond_Donors:                   1
##########                         Heavy_Atoms:                  26
##########                          Grid_Score:          -30.311800
##########                     Grid_vdw_energy:          -30.977814
##########                      Grid_es_energy:            0.666014
##########           Internal_energy_repulsive:           37.916649

@<TRIPOS>MOLECULE
ZINC000450219577
 49 51 1 0 0
SMALL
USER_CHARGES


@<TRIPOS>ATOM
      1 C1        -16.3746   -0.2027   57.6943 C.3     1  ZINC000450219577   -0.1800
      2 C2        -15.9004   -1.6301   57.9752 C.3     1  ZINC000450219577    0.1200
      3 C3        -16.6950   -2.2102   59.1469 C.3     1  ZINC000450219577   -0.1800
      4 C4        -16.1205   -2.4944   56.7321 C.3     1  ZINC000450219577   -0.1400
      5 O5        -14.4876   -1.6137   58.3094 O.3     1  ZINC000450219577   -0.3400
      6 C6        -13.8940   -2.8015   58.5060 C.2     1  ZINC000450219577    0.4700
      7 O7        -14.5615   -3.8062   58.5752 O.2     1  ZINC000450219577   -0.5000
      8 C8        -12.3952   -2.8817   58.6402 C.3     1  ZINC000450219577    0.2000
      9 H9        -12.0798   -3.9231   58.5751 H       1  ZINC000450219577    0.1400
     10 N10       -11.7665   -2.1130   57.5631 N.am    1  ZINC000450219577   -0.7100
     11 C11       -11.7259   -2.6140   56.3126 C.2     1  ZINC000450219577    0.5800
     12 O12       -12.2095   -3.7044   56.0787 O.2     1  ZINC000450219577   -0.5200
     13 C13       -11.0931   -1.8376   55.2253 C.ar    1  ZINC000450219577   -0.2500
     14 C14       -10.7272   -0.5002   55.4151 C.ar    1  ZINC000450219577    0.1900
     15 N15       -10.1638    0.1562   54.4162 N.ar    1  ZINC000450219577   -0.5100
     16 C16        -9.9459   -0.4309   53.2557 C.ar    1  ZINC000450219577    0.3800
     17 C17        -9.3004    0.3605   52.1476 C.3     1  ZINC000450219577   -0.1100
     18 C18        -9.6505    1.8464   52.0441 C.3     1  ZINC000450219577   -0.1500
     19 C19        -8.2689    1.4191   52.5436 C.3     1  ZINC000450219577   -0.1500
     20 N20       -10.2743   -1.6887   53.0342 N.ar    1  ZINC000450219577   -0.5200
     21 C21       -10.8377   -2.4208   53.9791 C.ar    1  ZINC000450219577    0.2200
     22 C22       -11.9789   -2.3130   59.9722 C.ar    1  ZINC000450219577   -0.1100
     23 C23       -12.8753   -2.2891   61.0242 C.ar    1  ZINC000450219577   -0.1000
     24 C24       -12.4934   -1.7676   62.2460 C.ar    1  ZINC000450219577   -0.1200
     25 C25       -11.2149   -1.2701   62.4160 C.ar    1  ZINC000450219577   -0.1100
     26 C26       -10.3182   -1.2947   61.3643 C.ar    1  ZINC000450219577   -0.1200
     27 C27       -10.6987   -1.8203   60.1437 C.ar    1  ZINC000450219577   -0.0800
     28 H28       -16.2179    0.4131   58.5800 H       1  ZINC000450219577    0.0800
     29 H29       -15.8086    0.2105   56.8596 H       1  ZINC000450219577    0.0600
     30 H30       -17.4353   -0.2150   57.4434 H       1  ZINC000450219577    0.0700
     31 H31       -17.7556   -2.2225   58.8960 H       1  ZINC000450219577    0.0700
     32 H32       -16.3573   -3.2271   59.3470 H       1  ZINC000450219577    0.0600
     33 H33       -16.5383   -1.5944   60.0326 H       1  ZINC000450219577    0.0800
     34 H34       -15.5544   -2.0812   55.8973 H       1  ZINC000450219577    0.0700
     35 H35       -15.7827   -3.5112   56.9322 H       1  ZINC000450219577    0.0700
     36 H36       -17.1812   -2.5067   56.4812 H       1  ZINC000450219577    0.0800
     37 H37       -11.3796   -1.2434   57.7499 H       1  ZINC000450219577    0.4100
     38 H38       -10.9029   -0.0123   56.3625 H       1  ZINC000450219577    0.1700
     39 H39        -9.1320   -0.1831   51.2180 H       1  ZINC000450219577    0.1300
     40 H40        -9.7127    2.2804   51.0461 H       1  ZINC000450219577    0.1000
     41 H41       -10.3478    2.2514   52.7774 H       1  ZINC000450219577    0.1100
     42 H42        -8.0573    1.5430   53.6057 H       1  ZINC000450219577    0.1000
     43 H43        -7.4223    1.5720   51.8744 H       1  ZINC000450219577    0.1100
     44 H44       -11.1040   -3.4503   53.7901 H       1  ZINC000450219577    0.1800
     45 H45       -13.8742   -2.6779   60.8915 H       1  ZINC000450219577    0.1200
     46 H46       -13.1940   -1.7483   63.0677 H       1  ZINC000450219577    0.1200
     47 H47       -10.9168   -0.8619   63.3704 H       1  ZINC000450219577    0.1300
     48 H48        -9.3194   -0.9057   61.4970 H       1  ZINC000450219577    0.1300
     49 H49        -9.9982   -1.8395   59.3220 H       1  ZINC000450219577    0.1300
@<TRIPOS>BOND
     1     1     2    1
     2     1    28    1
     3     1    29    1
     4     1    30    1
     5     2     3    1
     6     2     4    1
     7     2     5    1
     8     3    31    1
     9     3    32    1
    10     3    33    1
    11     4    34    1
    12     4    35    1
    13     4    36    1
    14     5     6    1
    15     6     7    2
    16     6     8    1
    17     8     9    1
    18     8    10    1
    19     8    22    1
    20    10    11   am
    21    10    37    1
    22    11    12    2
    23    11    13    1
    24    13    21   ar
    25    13    14   ar
    26    14    15   ar
    27    14    38    1
    28    15    16   ar
    29    16    17    1
    30    16    20   ar
    31    17    19    1
    32    17    18    1
    33    17    39    1
    34    18    19    1
    35    18    40    1
    36    18    41    1
    37    19    42    1
    38    19    43    1
    39    20    21   ar
    40    21    44    1
    41    22    27   ar
    42    22    23   ar
    43    23    24   ar
    44    23    45    1
    45    24    25   ar
    46    24    46    1
    47    25    26   ar
    48    25    47    1
    49    26    27   ar
    50    26    48    1
    51    27    49    1
@<TRIPOS>SUBSTRUCTURE
     1 ZINC000450219577        1 TEMP              0 ****  ****    0 ROOT


##########                                Name:    ZINC000609484313
##########                DOCK_Rotatable_Bonds:                  10
##########                         Heavy_Atoms:                  26
##########                    Molecular_Weight:             361.487
##########                DOCK_Rotatable_Bonds:                  10
##########                       Formal_Charge:          -0.0200004
##########                     HBond_Acceptors:                   7
##########                        HBond_Donors:                   1
##########                         Heavy_Atoms:                  26
##########                          Grid_Score:          -30.310509
##########                     Grid_vdw_energy:          -27.344236
##########                      Grid_es_energy:           -2.966273
##########           Internal_energy_repulsive:           34.016567

@<TRIPOS>MOLECULE
ZINC000609484313
 57 58 1 0 0
SMALL
USER_CHARGES


@<TRIPOS>ATOM
      1 C1         -1.4154   -1.5988   48.1120 C.3     1  ZINC000609484313   -0.1500
      2 C2         -2.0551   -1.0655   46.8285 C.3     1  ZINC000609484313   -0.1300
      3 C3         -1.1662    0.0277   46.2319 C.3     1  ZINC000609484313   -0.1100
      4 C4         -1.6771    1.3996   46.6766 C.3     1  ZINC000609484313   -0.1100
      5 C5         -0.7091    1.9973   47.6997 C.3     1  ZINC000609484313    0.0800
      6 H6         -0.2494    1.1949   48.2767 H       1  ZINC000609484313    0.1200
      7 C7          0.3618    2.7774   46.9820 C.2     1  ZINC000609484313    0.4900
      8 O8          1.5261    2.6337   47.2898 O.2     1  ZINC000609484313   -0.5000
      9 N9          0.0259    3.6352   45.9981 N.am    1  ZINC000609484313   -0.6300
     10 C10         1.0175    4.3562   45.3326 C.2     1  ZINC000609484313    0.2400
     11 N11         2.3052    4.3062   45.5522 N.2     1  ZINC000609484313   -0.3900
     12 O12         2.9094    5.0487   44.8135 O.3     1  ZINC000609484313    0.1000
     13 C13         2.0841    5.7059   43.9859 C.2     1  ZINC000609484313   -0.0200
     14 C14         2.4766    6.7096   42.9325 C.3     1  ZINC000609484313   -0.0800
     15 C15         0.8312    5.2873   44.2764 C.2     1  ZINC000609484313   -0.2300
     16 N16        -1.4437    2.8919   48.6042 N.3     1  ZINC000609484313   -0.5000
     17 C17        -0.5552    3.9193   49.1650 C.3     1  ZINC000609484313    0.0400
     18 C18        -1.3721    4.8761   50.0365 C.3     1  ZINC000609484313    0.0500
     19 N19        -2.0344    4.1160   51.1057 N.3     1  ZINC000609484313   -0.5100
     20 C20        -2.7690    5.0107   52.0103 C.3     1  ZINC000609484313    0.1800
     21 H21        -2.3323    6.0085   51.9681 H       1  ZINC000609484313    0.1200
     22 C22        -4.1805    5.0749   51.5973 C.1     1  ZINC000609484313    0.1700
     23 N23        -5.2697    5.1244   51.2787 N.1     1  ZINC000609484313   -0.4200
     24 C24        -2.6800    4.4750   53.4406 C.3     1  ZINC000609484313   -0.0800
     25 C25        -1.2966    4.7851   54.0162 C.3     1  ZINC000609484313   -0.1400
     26 C26        -3.7526    5.1432   54.3032 C.3     1  ZINC000609484313   -0.1500
     27 C27        -2.9230    3.0887   50.5449 C.3     1  ZINC000609484313    0.0500
     28 C28        -2.1061    2.1319   49.6734 C.3     1  ZINC000609484313    0.0400
     29 H29        -0.4337   -2.0135   47.8834 H       1  ZINC000609484313    0.0500
     30 H30        -1.3083   -0.7856   48.8298 H       1  ZINC000609484313    0.0500
     31 H31        -2.0487   -2.3776   48.5370 H       1  ZINC000609484313    0.0500
     32 H32        -2.1622   -1.8787   46.1108 H       1  ZINC000609484313    0.0600
     33 H33        -3.0369   -0.6508   47.0571 H       1  ZINC000609484313    0.0600
     34 H34        -0.1415   -0.1081   46.5777 H       1  ZINC000609484313    0.0800
     35 H35        -1.1940   -0.0351   45.1440 H       1  ZINC000609484313    0.0600
     36 H36        -1.7451    2.0598   45.8120 H       1  ZINC000609484313    0.0700
     37 H37        -2.6627    1.2910   47.1292 H       1  ZINC000609484313    0.0800
     38 H38        -0.9053    3.7510   45.7528 H       1  ZINC000609484313    0.4200
     39 H39         3.5594    6.8338   42.9347 H       1  ZINC000609484313    0.0800
     40 H40         2.1534    6.3544   41.9540 H       1  ZINC000609484313    0.0900
     41 H41         2.0006    7.6664   43.1471 H       1  ZINC000609484313    0.0900
     42 H42        -0.0963    5.5950   43.8169 H       1  ZINC000609484313    0.1900
     43 H43         0.2147    3.4424   49.7716 H       1  ZINC000609484313    0.0800
     44 H44        -0.0863    4.4766   48.3540 H       1  ZINC000609484313    0.0800
     45 H45        -0.7102    5.6219   50.4768 H       1  ZINC000609484313    0.0900
     46 H46        -2.1244    5.3732   49.4241 H       1  ZINC000609484313    0.0400
     47 H47        -2.8379    3.3965   53.4352 H       1  ZINC000609484313    0.0800
     48 H48        -1.1388    5.8636   54.0215 H       1  ZINC000609484313    0.0600
     49 H49        -1.2332    4.4035   55.0352 H       1  ZINC000609484313    0.0500
     50 H50        -0.5325    4.3091   53.4017 H       1  ZINC000609484313    0.0700
     51 H51        -3.6301    4.8325   55.3407 H       1  ZINC000609484313    0.0700
     52 H52        -3.6519    6.2263   54.2338 H       1  ZINC000609484313    0.0600
     53 H53        -4.7400    4.8468   53.9493 H       1  ZINC000609484313    0.0500
     54 H54        -3.3920    2.5313   51.3559 H       1  ZINC000609484313    0.0900
     55 H55        -3.6930    3.5656   49.9384 H       1  ZINC000609484313    0.0400
     56 H56        -2.7679    1.3861   49.2331 H       1  ZINC000609484313    0.0800
     57 H57        -1.3538    1.6347   50.2859 H       1  ZINC000609484313    0.0800
@<TRIPOS>BOND
     1     1     2    1
     2     1    29    1
     3     1    30    1
     4     1    31    1
     5     2     3    1
     6     2    32    1
     7     2    33    1
     8     3     4    1
     9     3    34    1
    10     3    35    1
    11     4     5    1
    12     4    36    1
    13     4    37    1
    14     5     6    1
    15     5     7    1
    16     5    16    1
    17     7     8    2
    18     7     9   am
    19     9    10    1
    20     9    38    1
    21    10    15    1
    22    10    11    2
    23    11    12    1
    24    12    13    1
    25    13    14    1
    26    13    15    2
    27    14    39    1
    28    14    40    1
    29    14    41    1
    30    15    42    1
    31    16    28    1
    32    16    17    1
    33    17    18    1
    34    17    43    1
    35    17    44    1
    36    18    19    1
    37    18    45    1
    38    18    46    1
    39    19    20    1
    40    19    27    1
    41    20    21    1
    42    20    22    1
    43    20    24    1
    44    22    23    3
    45    24    25    1
    46    24    26    1
    47    24    47    1
    48    25    48    1
    49    25    49    1
    50    25    50    1
    51    26    51    1
    52    26    52    1
    53    26    53    1
    54    27    28    1
    55    27    54    1
    56    27    55    1
    57    28    56    1
    58    28    57    1
@<TRIPOS>SUBSTRUCTURE
     1 ZINC000609484313        1 TEMP              0 ****  ****    0 ROOT


##########                                Name:    ZINC001371344729
##########                DOCK_Rotatable_Bonds:                   9
##########                         Heavy_Atoms:                  24
##########                    Molecular_Weight:             332.399
##########                DOCK_Rotatable_Bonds:                   9
##########                       Formal_Charge:          0.00999983
##########                     HBond_Acceptors:                   6
##########                        HBond_Donors:                   1
##########                         Heavy_Atoms:                  24
##########                          Grid_Score:          -30.307129
##########                     Grid_vdw_energy:          -27.667286
##########                      Grid_es_energy:           -2.639844
##########           Internal_energy_repulsive:           26.651941

@<TRIPOS>MOLECULE
ZINC001371344729
 48 49 1 0 0
SMALL
USER_CHARGES


@<TRIPOS>ATOM
      1 C1         -3.6802    5.7997   52.6352 C.3     1  ZINC001371344729   -0.1800
      2 C2         -3.4640    4.3578   52.1715 C.3     1  ZINC001371344729    0.1000
      3 N3         -2.0583    4.1682   51.8051 N.am    1  ZINC001371344729   -0.6100
      4 C4         -1.1211    4.0513   52.7667 C.2     1  ZINC001371344729    0.5100
      5 O5          0.0424    3.8928   52.4634 O.2     1  ZINC001371344729   -0.5200
      6 C6         -1.5191    4.1174   54.2187 C.3     1  ZINC001371344729   -0.0600
      7 C7         -0.5950    3.2490   55.0329 C.2     1  ZINC001371344729   -0.0100
      8 C8         -0.9255    2.5834   56.1542 C.2     1  ZINC001371344729   -0.1600
      9 C9         -2.2756    2.5665   56.8236 C.3     1  ZINC001371344729   -0.0800
     10 C10         0.2383    1.9078   56.5875 C.2     1  ZINC001371344729   -0.2100
     11 C11         1.2079    2.1932   55.6999 C.2     1  ZINC001371344729   -0.0300
     12 O12         0.6984    3.0090   54.7625 O.3     1  ZINC001371344729   -0.1700
     13 C13        -1.6712    4.1056   50.3935 C.3     1  ZINC001371344729    0.1200
     14 H14        -0.6051    3.8917   50.3183 H       1  ZINC001371344729    0.1100
     15 C15        -1.9709    5.4476   49.7226 C.3     1  ZINC001371344729   -0.1600
     16 C16        -2.4639    2.9984   49.6960 C.3     1  ZINC001371344729    0.1100
     17 N17        -1.8301    2.6770   48.4148 N.am    1  ZINC001371344729   -0.7200
     18 C18        -2.1571    1.5410   47.7674 C.2     1  ZINC001371344729    0.5900
     19 O19        -2.9791    0.7834   48.2462 O.2     1  ZINC001371344729   -0.5300
     20 C20        -1.5182    1.2169   46.4795 C.2     1  ZINC001371344729   -0.2300
     21 C21        -1.7876    0.1523   45.6701 C.2     1  ZINC001371344729    0.0200
     22 O22        -0.9923    0.2253   44.5985 O.3     1  ZINC001371344729   -0.1700
     23 C23        -0.1923    1.3008   44.6681 C.2     1  ZINC001371344729   -0.0100
     24 C24         0.8345    1.6941   43.6375 C.3     1  ZINC001371344729   -0.0800
     25 C25        -0.4528    1.9699   45.8015 C.2     1  ZINC001371344729   -0.1600
     26 H26        -3.4197    6.4839   51.8277 H       1  ZINC001371344729    0.0700
     27 H27        -4.7261    5.9408   52.9078 H       1  ZINC001371344729    0.0700
     28 H28        -3.0488    6.0017   53.5004 H       1  ZINC001371344729    0.0600
     29 H29        -4.0954    4.1559   51.3062 H       1  ZINC001371344729    0.0900
     30 H30        -3.7245    3.6736   52.9790 H       1  ZINC001371344729    0.0800
     31 H31        -2.5437    3.7631   54.3312 H       1  ZINC001371344729    0.1100
     32 H32        -1.4507    5.1478   54.5676 H       1  ZINC001371344729    0.1200
     33 H33        -2.8703    1.7464   56.4212 H       1  ZINC001371344729    0.0700
     34 H34        -2.1470    2.4294   57.8972 H       1  ZINC001371344729    0.0700
     35 H35        -2.7858    3.5113   56.6363 H       1  ZINC001371344729    0.0600
     36 H36         0.3305    1.2805   57.4619 H       1  ZINC001371344729    0.1500
     37 H37         2.2251    1.8321   55.7377 H       1  ZINC001371344729    0.2000
     38 H38        -1.4061    6.2364   50.2196 H       1  ZINC001371344729    0.0700
     39 H39        -1.6828    5.4011   48.6724 H       1  ZINC001371344729    0.0700
     40 H40        -3.0370    5.6614   49.7979 H       1  ZINC001371344729    0.0700
     41 H41        -2.4790    2.1096   50.3269 H       1  ZINC001371344729    0.0800
     42 H42        -3.4850    3.3373   49.5214 H       1  ZINC001371344729    0.0800
     43 H43        -1.1754    3.2819   48.0324 H       1  ZINC001371344729    0.4000
     44 H44        -2.5206   -0.6174   45.8618 H       1  ZINC001371344729    0.2100
     45 H45         1.7903    1.2303   43.8816 H       1  ZINC001371344729    0.0800
     46 H46         0.5085    1.3583   42.6532 H       1  ZINC001371344729    0.0800
     47 H47         0.9475    2.7782   43.6326 H       1  ZINC001371344729    0.0900
     48 H48         0.0227    2.8765   46.1455 H       1  ZINC001371344729    0.1600
@<TRIPOS>BOND
     1     1     2    1
     2     1    26    1
     3     1    27    1
     4     1    28    1
     5     2     3    1
     6     2    29    1
     7     2    30    1
     8     3     4   am
     9     3    13    1
    10     4     5    2
    11     4     6    1
    12     6     7    1
    13     6    31    1
    14     6    32    1
    15     7    12    1
    16     7     8    2
    17     8     9    1
    18     8    10    1
    19     9    33    1
    20     9    34    1
    21     9    35    1
    22    10    11    2
    23    10    36    1
    24    11    12    1
    25    11    37    1
    26    13    14    1
    27    13    15    1
    28    13    16    1
    29    15    38    1
    30    15    39    1
    31    15    40    1
    32    16    17    1
    33    16    41    1
    34    16    42    1
    35    17    18   am
    36    17    43    1
    37    18    19    2
    38    18    20    1
    39    20    25    1
    40    20    21    2
    41    21    22    1
    42    21    44    1
    43    22    23    1
    44    23    24    1
    45    23    25    2
    46    24    45    1
    47    24    46    1
    48    24    47    1
    49    25    48    1
@<TRIPOS>SUBSTRUCTURE
     1 ZINC001371344729        1 TEMP              0 ****  ****    0 ROOT


##########                                Name:    ZINC000463741321
##########                DOCK_Rotatable_Bonds:                   7
##########                         Heavy_Atoms:                  26
##########                    Molecular_Weight:             354.467
##########                DOCK_Rotatable_Bonds:                   7
##########                       Formal_Charge:         -6.4075e-07
##########                     HBond_Acceptors:                   4
##########                        HBond_Donors:                   1
##########                         Heavy_Atoms:                  26
##########                          Grid_Score:          -30.303556
##########                     Grid_vdw_energy:          -30.653749
##########                      Grid_es_energy:            0.350193
##########           Internal_energy_repulsive:           20.201591

@<TRIPOS>MOLECULE
ZINC000463741321
 53 55 1 0 0
SMALL
USER_CHARGES


@<TRIPOS>ATOM
      1 C1         -4.2369    6.1125   51.9379 C.3     1  ZINC000463741321   -0.1500
      2 C2         -2.8703    5.5018   52.2550 C.3     1  ZINC000463741321   -0.1100
      3 H3         -2.3025    6.1884   52.8829 H       1  ZINC000463741321    0.1000
      4 C4         -3.0633    4.1760   52.9938 C.3     1  ZINC000463741321   -0.0900
      5 C5         -2.8115    4.3837   54.4886 C.3     1  ZINC000463741321   -0.0800
      6 C6         -3.6028    3.3720   55.2766 C.ar    1  ZINC000463741321   -0.1200
      7 C7         -4.9745    3.2986   55.1267 C.ar    1  ZINC000463741321   -0.0900
      8 C8         -5.7008    2.3703   55.8497 C.ar    1  ZINC000463741321   -0.1300
      9 C9         -5.0559    1.5152   56.7234 C.ar    1  ZINC000463741321   -0.1000
     10 C10        -3.6840    1.5870   56.8752 C.ar    1  ZINC000463741321   -0.1500
     11 C11        -2.9550    2.5115   56.1470 C.ar    1  ZINC000463741321    0.1000
     12 F12        -1.6139    2.5826   56.2947 F       1  ZINC000463741321   -0.1400
     13 C13        -2.1194    5.2572   50.9716 C.2     1  ZINC000463741321    0.5200
     14 O14        -1.6954    6.1943   50.3290 O.2     1  ZINC000463741321   -0.5300
     15 N15        -1.9189    3.9970   50.5378 N.am    1  ZINC000463741321   -0.7300
     16 C16        -1.1903    3.7592   49.2892 C.3     1  ZINC000463741321    0.1500
     17 H17        -1.3774    4.5800   48.5968 H       1  ZINC000463741321    0.1000
     18 C18         0.3099    3.6693   49.5819 C.3     1  ZINC000463741321   -0.1300
     19 C19         1.0580    3.3612   48.2819 C.3     1  ZINC000463741321   -0.1200
     20 C20         0.5202    2.0581   47.6861 C.3     1  ZINC000463741321    0.0600
     21 N21        -0.9181    2.1955   47.4235 N.3     1  ZINC000463741321   -0.4800
     22 C22        -1.4149    1.0722   46.7584 C.ar    1  ZINC000463741321    0.1100
     23 C23        -1.7917   -0.0537   47.4796 C.ar    1  ZINC000463741321   -0.1700
     24 C24        -2.2831   -1.1625   46.8189 C.ar    1  ZINC000463741321   -0.0900
     25 C25        -2.3997   -1.1529   45.4410 C.ar    1  ZINC000463741321   -0.1500
     26 C26        -2.0255   -0.0337   44.7201 C.ar    1  ZINC000463741321   -0.0900
     27 C27        -1.5387    1.0805   45.3749 C.ar    1  ZINC000463741321   -0.1400
     28 C28        -1.6637    2.4451   48.6638 C.3     1  ZINC000463741321    0.0500
     29 H29        -4.8048    5.4259   51.3099 H       1  ZINC000463741321    0.0600
     30 H30        -4.7800    6.2895   52.8661 H       1  ZINC000463741321    0.0700
     31 H31        -4.0995    7.0570   51.4115 H       1  ZINC000463741321    0.0600
     32 H32        -4.0827    3.8210   52.8430 H       1  ZINC000463741321    0.0700
     33 H33        -2.3606    3.4384   52.6060 H       1  ZINC000463741321    0.0700
     34 H34        -1.7494    4.2581   54.6990 H       1  ZINC000463741321    0.0800
     35 H35        -3.1218    5.3891   54.7730 H       1  ZINC000463741321    0.0800
     36 H36        -5.4795    3.9667   54.4450 H       1  ZINC000463741321    0.1300
     37 H37        -6.7729    2.3138   55.7319 H       1  ZINC000463741321    0.1300
     38 H38        -5.6244    0.7907   57.2878 H       1  ZINC000463741321    0.1300
     39 H39        -3.1805    0.9191   57.5585 H       1  ZINC000463741321    0.1400
     40 H40        -2.2569    3.2474   51.0523 H       1  ZINC000463741321    0.4000
     41 H41         0.6596    4.6188   49.9871 H       1  ZINC000463741321    0.0700
     42 H42         0.4930    2.8742   50.3047 H       1  ZINC000463741321    0.0600
     43 H43         0.9064    4.1752   47.5731 H       1  ZINC000463741321    0.0800
     44 H44         2.1223    3.2536   48.4912 H       1  ZINC000463741321    0.0800
     45 H45         1.0409    1.8434   46.7530 H       1  ZINC000463741321    0.0900
     46 H46         0.6846    1.2420   48.3897 H       1  ZINC000463741321    0.0500
     47 H47        -1.7002   -0.0620   48.5557 H       1  ZINC000463741321    0.1200
     48 H48        -2.5762   -2.0381   47.3790 H       1  ZINC000463741321    0.1200
     49 H49        -2.7835   -2.0216   44.9268 H       1  ZINC000463741321    0.1200
     50 H50        -2.1178   -0.0296   43.6440 H       1  ZINC000463741321    0.1200
     51 H51        -1.2469    1.9544   44.8113 H       1  ZINC000463741321    0.1300
     52 H52        -1.4893    1.6275   49.3632 H       1  ZINC000463741321    0.0500
     53 H53        -2.7285    2.5111   48.4403 H       1  ZINC000463741321    0.0900
@<TRIPOS>BOND
     1     1     2    1
     2     1    29    1
     3     1    30    1
     4     1    31    1
     5     2     3    1
     6     2     4    1
     7     2    13    1
     8     4     5    1
     9     4    32    1
    10     4    33    1
    11     5     6    1
    12     5    34    1
    13     5    35    1
    14     6    11   ar
    15     6     7   ar
    16     7     8   ar
    17     7    36    1
    18     8     9   ar
    19     8    37    1
    20     9    10   ar
    21     9    38    1
    22    10    11   ar
    23    10    39    1
    24    11    12    1
    25    13    14    2
    26    13    15   am
    27    15    16    1
    28    15    40    1
    29    16    17    1
    30    16    28    1
    31    16    18    1
    32    18    19    1
    33    18    41    1
    34    18    42    1
    35    19    20    1
    36    19    43    1
    37    19    44    1
    38    20    21    1
    39    20    45    1
    40    20    46    1
    41    21    22    1
    42    21    28    1
    43    22    27   ar
    44    22    23   ar
    45    23    24   ar
    46    23    47    1
    47    24    25   ar
    48    24    48    1
    49    25    26   ar
    50    25    49    1
    51    26    27   ar
    52    26    50    1
    53    27    51    1
    54    28    52    1
    55    28    53    1
@<TRIPOS>SUBSTRUCTURE
     1 ZINC000463741321        1 TEMP              0 ****  ****    0 ROOT


##########                                Name:    ZINC000496437542
##########                DOCK_Rotatable_Bonds:                   7
##########                         Heavy_Atoms:                  24
##########                    Molecular_Weight:             338.447
##########                DOCK_Rotatable_Bonds:                   7
##########                       Formal_Charge:           0.0400002
##########                     HBond_Acceptors:                   6
##########                        HBond_Donors:                   1
##########                         Heavy_Atoms:                  24
##########                          Grid_Score:          -30.275114
##########                     Grid_vdw_energy:          -28.901209
##########                      Grid_es_energy:           -1.373905
##########           Internal_energy_repulsive:           17.959139

@<TRIPOS>MOLECULE
ZINC000496437542
 54 55 1 0 0
SMALL
USER_CHARGES


@<TRIPOS>ATOM
      1 C1         -8.4855    2.1219   56.6460 C.3     1  ZINC000496437542   -0.1800
      2 C2         -8.2286    2.5859   55.2109 C.3     1  ZINC000496437542    0.1400
      3 C3         -9.2604    1.9503   54.2769 C.3     1  ZINC000496437542   -0.1800
      4 C4         -8.3459    4.1097   55.1390 C.3     1  ZINC000496437542   -0.1400
      5 O5         -6.8943    2.1834   54.8036 O.3     1  ZINC000496437542   -0.3600
      6 C6         -6.5092    2.5162   53.5571 C.2     1  ZINC000496437542    0.6600
      7 O7         -6.9826    1.9364   52.5999 O.2     1  ZINC000496437542   -0.5600
      8 N8         -5.5987    3.4923   53.3711 N.am    1  ZINC000496437542   -0.6000
      9 C9         -5.0115    4.2083   54.5147 C.3     1  ZINC000496437542    0.0800
     10 C10        -3.4862    4.1941   54.3626 C.3     1  ZINC000496437542    0.0500
     11 O11        -3.1381    4.6788   53.0635 O.3     1  ZINC000496437542   -0.3700
     12 C12        -3.6292    3.8750   51.9880 C.3     1  ZINC000496437542    0.0700
     13 H13        -3.2614    2.8549   52.0985 H       1  ZINC000496437542    0.0700
     14 C14        -3.1443    4.4516   50.6564 C.3     1  ZINC000496437542    0.1300
     15 N15        -2.8783    3.3580   49.7186 N.am    1  ZINC000496437542   -0.7200
     16 C16        -1.6108    2.9638   49.4850 C.2     1  ZINC000496437542    0.5600
     17 O17        -0.6879    3.5150   50.0538 O.2     1  ZINC000496437542   -0.5400
     18 C18        -1.3435    1.8668   48.5420 C.2     1  ZINC000496437542   -0.1900
     19 C19        -2.1406    0.8207   48.5114 C.2     1  ZINC000496437542   -0.0600
     20 C20        -1.8746   -0.3142   47.5451 C.3     1  ZINC000496437542   -0.1000
     21 C21        -2.2020    0.1646   46.1289 C.3     1  ZINC000496437542   -0.1100
     22 C22        -1.0115    0.8748   45.5111 C.3     1  ZINC000496437542   -0.1200
     23 C23        -0.6613    2.1876   46.1876 C.3     1  ZINC000496437542   -0.1200
     24 C24        -0.1558    1.9497   47.6067 C.3     1  ZINC000496437542   -0.0800
     25 C25        -5.1577    3.8691   52.0187 C.3     1  ZINC000496437542    0.1000
     26 H26        -8.4019    1.0362   56.6973 H       1  ZINC000496437542    0.0900
     27 H27        -7.7504    2.5747   57.3113 H       1  ZINC000496437542    0.0600
     28 H28        -9.4871    2.4240   56.9518 H       1  ZINC000496437542    0.0700
     29 H29       -10.2621    2.2525   54.5827 H       1  ZINC000496437542    0.0700
     30 H30        -9.0775    2.2810   53.2545 H       1  ZINC000496437542    0.0600
     31 H31        -9.1769    0.8647   54.3282 H       1  ZINC000496437542    0.0900
     32 H32        -7.6108    4.5625   55.8043 H       1  ZINC000496437542    0.0700
     33 H33        -8.1629    4.4403   54.1166 H       1  ZINC000496437542    0.0700
     34 H34        -9.3476    4.4119   55.4448 H       1  ZINC000496437542    0.0800
     35 H35        -5.3697    5.2378   54.5264 H       1  ZINC000496437542    0.0800
     36 H36        -5.2925    3.7108   55.4429 H       1  ZINC000496437542    0.1000
     37 H37        -3.0385    4.8350   55.1222 H       1  ZINC000496437542    0.1100
     38 H38        -3.1179    3.1752   54.4817 H       1  ZINC000496437542    0.0600
     39 H39        -3.9115    5.1063   50.2429 H       1  ZINC000496437542    0.0900
     40 H40        -2.2294    5.0216   50.8188 H       1  ZINC000496437542    0.0800
     41 H41        -3.6144    2.9175   49.2659 H       1  ZINC000496437542    0.4000
     42 H42        -2.9884    0.7710   49.1788 H       1  ZINC000496437542    0.1300
     43 H43        -0.8251   -0.6034   47.6003 H       1  ZINC000496437542    0.0800
     44 H44        -2.5054   -1.1662   47.7985 H       1  ZINC000496437542    0.0800
     45 H45        -2.4668   -0.6944   45.5123 H       1  ZINC000496437542    0.0700
     46 H46        -3.0479    0.8509   46.1689 H       1  ZINC000496437542    0.0700
     47 H47        -0.1461    0.2142   45.5648 H       1  ZINC000496437542    0.0600
     48 H48        -1.2302    1.0718   44.4616 H       1  ZINC000496437542    0.0600
     49 H49         0.1129    2.6932   45.6105 H       1  ZINC000496437542    0.0700
     50 H50        -1.5489    2.8191   46.2260 H       1  ZINC000496437542    0.0600
     51 H51         0.4899    2.7745   47.9083 H       1  ZINC000496437542    0.0700
     52 H52         0.4004    1.0130   47.6449 H       1  ZINC000496437542    0.0800
     53 H53        -5.5366    3.1491   51.2934 H       1  ZINC000496437542    0.1100
     54 H54        -5.5335    4.8640   51.7799 H       1  ZINC000496437542    0.0900
@<TRIPOS>BOND
     1     1     2    1
     2     1    26    1
     3     1    27    1
     4     1    28    1
     5     2     3    1
     6     2     4    1
     7     2     5    1
     8     3    29    1
     9     3    30    1
    10     3    31    1
    11     4    32    1
    12     4    33    1
    13     4    34    1
    14     5     6    1
    15     6     7    2
    16     6     8   am
    17     8    25    1
    18     8     9    1
    19     9    10    1
    20     9    35    1
    21     9    36    1
    22    10    11    1
    23    10    37    1
    24    10    38    1
    25    11    12    1
    26    12    13    1
    27    12    14    1
    28    12    25    1
    29    14    15    1
    30    14    39    1
    31    14    40    1
    32    15    16   am
    33    15    41    1
    34    16    17    2
    35    16    18    1
    36    18    24    1
    37    18    19    2
    38    19    20    1
    39    19    42    1
    40    20    21    1
    41    20    43    1
    42    20    44    1
    43    21    22    1
    44    21    45    1
    45    21    46    1
    46    22    23    1
    47    22    47    1
    48    22    48    1
    49    23    24    1
    50    23    49    1
    51    23    50    1
    52    24    51    1
    53    24    52    1
    54    25    53    1
    55    25    54    1
@<TRIPOS>SUBSTRUCTURE
     1 ZINC000496437542        1 TEMP              0 ****  ****    0 ROOT


##########                                Name:    ZINC000892389374
##########                DOCK_Rotatable_Bonds:                   6
##########                         Heavy_Atoms:                  25
##########                    Molecular_Weight:             371.383
##########                DOCK_Rotatable_Bonds:                   6
##########                       Formal_Charge:          -0.0199998
##########                     HBond_Acceptors:                   9
##########                        HBond_Donors:                   1
##########                         Heavy_Atoms:                  25
##########                          Grid_Score:          -30.262817
##########                     Grid_vdw_energy:          -29.469046
##########                      Grid_es_energy:           -0.793772
##########           Internal_energy_repulsive:            9.039898

@<TRIPOS>MOLECULE
ZINC000892389374
 41 43 1 0 0
SMALL
USER_CHARGES


@<TRIPOS>ATOM
      1 C1         -0.5202    5.3731   47.4167 C.3     1  ZINC000892389374   -0.1000
      2 C2         -0.4708    3.8758   47.5810 C.ar    1  ZINC000892389374   -0.1800
      3 C3          0.0476    3.0877   46.5720 C.ar    1  ZINC000892389374   -0.0400
      4 C4          0.0951    1.7146   46.7190 C.ar    1  ZINC000892389374   -0.2100
      5 C5         -0.3791    1.1221   47.8823 C.ar    1  ZINC000892389374    0.2200
      6 N6         -0.3306   -0.2687   48.0301 N.am    1  ZINC000892389374   -0.5700
      7 C7         -1.4965   -1.1568   48.1553 C.3     1  ZINC000892389374    0.0600
      8 C8         -0.8757   -2.5606   48.2898 C.3     1  ZINC000892389374    0.0400
      9 O9          0.5597   -2.3191   48.2269 O.3     1  ZINC000892389374   -0.3200
     10 C10         0.7854   -1.0091   48.0748 C.2     1  ZINC000892389374    0.6400
     11 O11         1.9005   -0.5334   47.9933 O.2     1  ZINC000892389374   -0.5000
     12 C12        -0.9005    1.9106   48.8980 C.ar    1  ZINC000892389374   -0.2300
     13 C13        -0.9417    3.2898   48.7500 C.ar    1  ZINC000892389374    0.2400
     14 N14        -1.4658    4.0871   49.7699 N.pl3   1  ZINC000892389374   -0.7400
     15 C15        -0.5715    4.9037   50.5942 C.3     1  ZINC000892389374    0.2000
     16 C16        -0.6593    4.4524   52.0294 C.2     1  ZINC000892389374   -0.2400
     17 C17         0.2890    4.6000   52.9594 C.2     1  ZINC000892389374    0.0600
     18 N18        -0.0287    4.1201   54.1448 N.2     1  ZINC000892389374   -0.4500
     19 C19        -1.1922    3.5757   54.2666 C.2     1  ZINC000892389374    0.0200
     20 C20        -1.7338    2.9730   55.5372 C.3     1  ZINC000892389374   -0.0900
     21 C21        -0.5714    2.5781   56.4502 C.3     1  ZINC000892389374    0.4600
     22 F22        -1.0693    1.9282   57.5846 F       1  ZINC000892389374   -0.1800
     23 F23         0.2914    1.7189   55.7615 F       1  ZINC000892389374   -0.1800
     24 F24         0.1267    3.7264   56.8395 F       1  ZINC000892389374   -0.1700
     25 S25        -2.0333    3.6438   52.7796 S.3     1  ZINC000892389374    0.1900
     26 H26         0.4046    5.8106   47.7928 H       1  ZINC000892389374    0.0700
     27 H27        -0.6356    5.6192   46.3612 H       1  ZINC000892389374    0.0700
     28 H28        -1.3654    5.7724   47.9774 H       1  ZINC000892389374    0.0600
     29 H29         0.4163    3.5457   45.6661 H       1  ZINC000892389374    0.1300
     30 H30         0.5010    1.1012   45.9281 H       1  ZINC000892389374    0.1200
     31 H31        -2.0743   -0.9068   49.0451 H       1  ZINC000892389374    0.1000
     32 H32        -2.1203   -1.0977   47.2635 H       1  ZINC000892389374    0.1000
     33 H33        -1.1464   -3.0082   49.2461 H       1  ZINC000892389374    0.1100
     34 H34        -1.1922   -3.1990   47.4649 H       1  ZINC000892389374    0.1100
     35 H35        -1.2702    1.4522   49.8034 H       1  ZINC000892389374    0.1600
     36 H36        -2.4220    4.1002   49.9324 H       1  ZINC000892389374    0.4000
     37 H37         0.4532    4.7909   50.2399 H       1  ZINC000892389374    0.0900
     38 H38        -0.8671    5.9505   50.5238 H       1  ZINC000892389374    0.0800
     39 H39         1.2379    5.0740   52.7561 H       1  ZINC000892389374    0.1800
     40 H40        -2.3636    3.7030   56.0459 H       1  ZINC000892389374    0.1300
     41 H41        -2.3240    2.0887   55.2972 H       1  ZINC000892389374    0.1400
@<TRIPOS>BOND
     1     1     2    1
     2     1    26    1
     3     1    27    1
     4     1    28    1
     5     2    13   ar
     6     2     3   ar
     7     3     4   ar
     8     3    29    1
     9     4     5   ar
    10     4    30    1
    11     5     6    1
    12     5    12   ar
    13     6    10   am
    14     6     7    1
    15     7     8    1
    16     7    31    1
    17     7    32    1
    18     8     9    1
    19     8    33    1
    20     8    34    1
    21     9    10    1
    22    10    11    2
    23    12    13   ar
    24    12    35    1
    25    13    14    1
    26    14    15    1
    27    14    36    1
    28    15    16    1
    29    15    37    1
    30    15    38    1
    31    16    25    1
    32    16    17    2
    33    17    18    1
    34    17    39    1
    35    18    19    2
    36    19    20    1
    37    19    25    1
    38    20    21    1
    39    20    40    1
    40    20    41    1
    41    21    22    1
    42    21    23    1
    43    21    24    1
@<TRIPOS>SUBSTRUCTURE
     1 ZINC000892389374        1 TEMP              0 ****  ****    0 ROOT


##########                                Name:    ZINC000545381384
##########                DOCK_Rotatable_Bonds:                   6
##########                         Heavy_Atoms:                  30
##########                    Molecular_Weight:             405.543
##########                DOCK_Rotatable_Bonds:                   6
##########                       Formal_Charge:                0.05
##########                     HBond_Acceptors:                   6
##########                        HBond_Donors:                   1
##########                         Heavy_Atoms:                  30
##########                          Grid_Score:          -30.260639
##########                     Grid_vdw_energy:          -28.790243
##########                      Grid_es_energy:           -1.470397
##########           Internal_energy_repulsive:           14.661982

@<TRIPOS>MOLECULE
ZINC000545381384
 61 64 1 0 0
SMALL
USER_CHARGES


@<TRIPOS>ATOM
      1 C1        -13.3461   -0.4732   51.7489 C.3     1  ZINC000545381384   -0.2000
      2 C2        -12.1648   -1.1901   52.4056 C.3     1  ZINC000545381384    0.0500
      3 N3        -11.1309   -0.2081   52.7586 N.3     1  ZINC000545381384   -0.5300
      4 C4         -9.9060   -0.4266   51.9732 C.3     1  ZINC000545381384    0.0500
      5 C5         -9.0227    0.8149   52.0935 C.3     1  ZINC000545381384   -0.0700
      6 C6         -8.8449    1.1818   53.5473 C.ar    1  ZINC000545381384    0.1800
      7 C7         -9.6965    0.6794   54.5242 C.ar    1  ZINC000545381384   -0.0800
      8 C8        -10.8286   -0.2560   54.1928 C.3     1  ZINC000545381384    0.0900
      9 C9         -9.5076    1.0415   55.8557 C.ar    1  ZINC000545381384   -0.0700
     10 C10       -10.3988    0.5265   56.9170 C.2     1  ZINC000545381384    0.5800
     11 O11       -11.3653    1.1754   57.2669 O.2     1  ZINC000545381384   -0.4800
     12 N12       -10.1396   -0.6624   57.4964 N.am    1  ZINC000545381384   -0.6400
     13 C13       -10.9805   -1.1486   58.4955 C.2     1  ZINC000545381384    0.3000
     14 C14       -11.0812   -0.6707   59.7665 C.2     1  ZINC000545381384   -0.2700
     15 C15       -12.0366   -1.4377   60.4382 C.2     1  ZINC000545381384    0.1000
     16 C16       -12.4651   -1.2539   61.8712 C.3     1  ZINC000545381384   -0.0300
     17 C17       -13.5847   -0.2133   61.9394 C.3     1  ZINC000545381384   -0.0600
     18 C18       -13.0475    1.1444   61.4825 C.3     1  ZINC000545381384   -0.1500
     19 C19       -14.7346   -0.6408   61.0251 C.3     1  ZINC000545381384   -0.1400
     20 C20       -14.0916   -0.1032   63.3788 C.3     1  ZINC000545381384   -0.1400
     21 N21       -12.4967   -2.3421   59.6122 N.2     1  ZINC000545381384   -0.2700
     22 N22       -11.8537   -2.1821   58.3780 N.pl3   1  ZINC000545381384   -0.3900
     23 C23       -12.0773   -2.9910   57.1773 C.3     1  ZINC000545381384    0.1000
     24 C24        -8.4376    1.9163   56.1648 C.ar    1  ZINC000545381384   -0.0700
     25 C25        -8.1812    2.3260   57.4794 C.ar    1  ZINC000545381384   -0.1100
     26 C26        -7.1396    3.1676   57.7318 C.ar    1  ZINC000545381384   -0.1000
     27 C27        -6.3259    3.6267   56.6980 C.ar    1  ZINC000545381384   -0.1000
     28 C28        -6.5475    3.2495   55.4097 C.ar    1  ZINC000545381384   -0.0900
     29 C29        -7.6134    2.3810   55.1100 C.ar    1  ZINC000545381384    0.1400
     30 N30        -7.8559    1.9942   53.8581 N.ar    1  ZINC000545381384   -0.4600
     31 H31       -13.7393    0.2800   52.4318 H       1  ZINC000545381384    0.0600
     32 H32       -13.0133    0.0084   50.8295 H       1  ZINC000545381384    0.0600
     33 H33       -14.1276   -1.1971   51.5176 H       1  ZINC000545381384    0.0700
     34 H34       -12.5048   -1.6999   53.3072 H       1  ZINC000545381384    0.0900
     35 H35       -11.7504   -1.9199   51.7100 H       1  ZINC000545381384    0.0800
     36 H36        -9.3723   -1.2944   52.3610 H       1  ZINC000545381384    0.0500
     37 H37       -10.1661   -0.5907   50.9276 H       1  ZINC000545381384    0.0900
     38 H38        -8.0482    0.6100   51.6501 H       1  ZINC000545381384    0.1000
     39 H39        -9.4915    1.6452   51.5654 H       1  ZINC000545381384    0.1000
     40 H40       -11.7141    0.0360   54.7574 H       1  ZINC000545381384    0.0900
     41 H41       -10.5483   -1.2726   54.4684 H       1  ZINC000545381384    0.0700
     42 H42        -9.3677   -1.1797   57.2180 H       1  ZINC000545381384    0.4100
     43 H43       -10.5217    0.1544   60.1818 H       1  ZINC000545381384    0.1700
     44 H44       -12.8267   -2.2030   62.2669 H       1  ZINC000545381384    0.0800
     45 H45       -11.6159   -0.9132   62.4636 H       1  ZINC000545381384    0.0800
     46 H46       -12.6864    1.0660   60.4571 H       1  ZINC000545381384    0.0500
     47 H47       -13.8452    1.8858   61.5311 H       1  ZINC000545381384    0.0500
     48 H48       -12.2283    1.4490   62.1339 H       1  ZINC000545381384    0.0800
     49 H49       -15.1173   -1.6081   61.3506 H       1  ZINC000545381384    0.0600
     50 H50       -15.5322    0.1005   61.0736 H       1  ZINC000545381384    0.0600
     51 H51       -14.3734   -0.7193   59.9996 H       1  ZINC000545381384    0.0600
     52 H52       -13.2723    0.2014   64.0301 H       1  ZINC000545381384    0.0500
     53 H53       -14.8892    0.6381   63.4273 H       1  ZINC000545381384    0.0500
     54 H54       -14.4742   -1.0705   63.7043 H       1  ZINC000545381384    0.0500
     55 H55       -12.8708   -2.5424   56.5794 H       1  ZINC000545381384    0.0800
     56 H56       -11.1595   -3.0319   56.5907 H       1  ZINC000545381384    0.0800
     57 H57       -12.3678   -4.0005   57.4680 H       1  ZINC000545381384    0.1000
     58 H58        -8.8057    1.9771   58.2885 H       1  ZINC000545381384    0.1300
     59 H59        -6.9426    3.4830   58.7458 H       1  ZINC000545381384    0.1300
     60 H60        -5.5062    4.2930   56.9230 H       1  ZINC000545381384    0.1400
     61 H61        -5.9079    3.6154   54.6202 H       1  ZINC000545381384    0.1400
@<TRIPOS>BOND
     1     1     2    1
     2     1    31    1
     3     1    32    1
     4     1    33    1
     5     2     3    1
     6     2    34    1
     7     2    35    1
     8     3     8    1
     9     3     4    1
    10     4     5    1
    11     4    36    1
    12     4    37    1
    13     5     6    1
    14     5    38    1
    15     5    39    1
    16     6    30   ar
    17     6     7   ar
    18     7     8    1
    19     7     9   ar
    20     8    40    1
    21     8    41    1
    22     9    10    1
    23     9    24   ar
    24    10    11    2
    25    10    12   am
    26    12    13    1
    27    12    42    1
    28    13    22    1
    29    13    14    2
    30    14    15    1
    31    14    43    1
    32    15    16    1
    33    15    21    2
    34    16    17    1
    35    16    44    1
    36    16    45    1
    37    17    18    1
    38    17    19    1
    39    17    20    1
    40    18    46    1
    41    18    47    1
    42    18    48    1
    43    19    49    1
    44    19    50    1
    45    19    51    1
    46    20    52    1
    47    20    53    1
    48    20    54    1
    49    21    22    1
    50    22    23    1
    51    23    55    1
    52    23    56    1
    53    23    57    1
    54    24    29   ar
    55    24    25   ar
    56    25    26   ar
    57    25    58    1
    58    26    27   ar
    59    26    59    1
    60    27    28   ar
    61    27    60    1
    62    28    29   ar
    63    28    61    1
    64    29    30   ar
@<TRIPOS>SUBSTRUCTURE
     1 ZINC000545381384        1 TEMP              0 ****  ****    0 ROOT


##########                                Name:    ZINC001757264545
##########                DOCK_Rotatable_Bonds:                  11
##########                         Heavy_Atoms:                  25
##########                    Molecular_Weight:             344.497
##########                DOCK_Rotatable_Bonds:                  11
##########                       Formal_Charge:          0.00999946
##########                     HBond_Acceptors:                   4
##########                        HBond_Donors:                   2
##########                         Heavy_Atoms:                  25
##########                          Grid_Score:          -30.255482
##########                     Grid_vdw_energy:          -28.492443
##########                      Grid_es_energy:           -1.763040
##########           Internal_energy_repulsive:            9.031842

@<TRIPOS>MOLECULE
ZINC001757264545
 57 57 1 0 0
SMALL
USER_CHARGES


@<TRIPOS>ATOM
      1 C1        -13.8395   -3.6398   58.7233 C.1     1  ZINC001757264545   -0.2100
      2 C2        -12.9841   -2.8391   58.6493 C.1     1  ZINC001757264545   -0.1900
      3 C3        -11.9116   -1.8352   58.5565 C.3     1  ZINC001757264545   -0.0100
      4 C4        -11.1776   -1.7478   59.8962 C.3     1  ZINC001757264545   -0.1200
      5 C5         -9.9338   -0.8706   59.7399 C.3     1  ZINC001757264545   -0.1200
      6 C6        -10.3571    0.5548   59.3796 C.3     1  ZINC001757264545   -0.1000
      7 C7         -9.3889    1.5516   60.0199 C.3     1  ZINC001757264545   -0.1400
      8 C8         -8.1740    1.7067   59.1418 C.2     1  ZINC001757264545    0.5100
      9 O9         -7.1998    1.0080   59.3255 O.2     1  ZINC001757264545   -0.5400
     10 N10        -8.1699    2.6220   58.1524 N.am    1  ZINC001757264545   -0.7300
     11 C11        -6.9896    2.7715   57.2978 C.3     1  ZINC001757264545    0.1400
     12 H12        -6.3683    1.8794   57.3768 H       1  ZINC001757264545    0.1000
     13 C13        -6.1863    3.9938   57.7468 C.3     1  ZINC001757264545   -0.1300
     14 C14        -4.9535    4.1500   56.8542 C.3     1  ZINC001757264545   -0.1200
     15 C15        -5.3960    4.3361   55.4014 C.3     1  ZINC001757264545   -0.1200
     16 C16        -6.1993    3.1139   54.9524 C.3     1  ZINC001757264545   -0.1300
     17 C17        -7.4321    2.9578   55.8450 C.3     1  ZINC001757264545    0.1400
     18 H18        -8.0533    3.8498   55.7660 H       1  ZINC001757264545    0.1000
     19 N19        -8.2012    1.7874   55.4150 N.am    1  ZINC001757264545   -0.7200
     20 C20        -9.1100    1.9043   54.4266 C.2     1  ZINC001757264545    0.6400
     21 O21        -9.2905    2.9809   53.8907 O.2     1  ZINC001757264545   -0.5200
     22 C22        -9.8631    0.7606   54.0074 C.1     1  ZINC001757264545   -0.2300
     23 C23       -10.4805   -0.1770   53.6638 C.1     1  ZINC001757264545   -0.0500
     24 C24       -11.2546   -1.3525   53.2330 C.3     1  ZINC001757264545    0.0300
     25 C25       -10.8131   -1.7668   51.8279 C.3     1  ZINC001757264545   -0.1400
     26 C26       -11.0109   -2.5080   54.2057 C.3     1  ZINC001757264545   -0.1400
     27 C27       -12.7444   -1.0044   53.2176 C.3     1  ZINC001757264545   -0.1400
     28 H28       -14.6045   -4.3559   58.7895 H       1  ZINC001757264545    0.2200
     29 H29       -12.3430   -0.8639   58.3146 H       1  ZINC001757264545    0.0900
     30 H30       -11.2089   -2.1254   57.7754 H       1  ZINC001757264545    0.0900
     31 H31       -10.8798   -2.7472   60.2131 H       1  ZINC001757264545    0.0700
     32 H32       -11.8385   -1.3109   60.6447 H       1  ZINC001757264545    0.0700
     33 H33        -9.3024   -1.2732   58.9478 H       1  ZINC001757264545    0.0700
     34 H34        -9.3776   -0.8585   60.6772 H       1  ZINC001757264545    0.0700
     35 H35       -11.3656    0.7390   59.7497 H       1  ZINC001757264545    0.0700
     36 H36       -10.3398    0.6762   58.2965 H       1  ZINC001757264545    0.0700
     37 H37        -9.0843    1.1841   60.9998 H       1  ZINC001757264545    0.0900
     38 H38        -9.8824    2.5171   60.1312 H       1  ZINC001757264545    0.0900
     39 H39        -8.9486    3.1816   58.0063 H       1  ZINC001757264545    0.4000
     40 H40        -6.8075    4.8859   57.6678 H       1  ZINC001757264545    0.0700
     41 H41        -5.8710    3.8611   58.7818 H       1  ZINC001757264545    0.0800
     42 H42        -4.3812    5.0208   57.1741 H       1  ZINC001757264545    0.0700
     43 H43        -4.3323    3.2579   56.9332 H       1  ZINC001757264545    0.0700
     44 H44        -4.5178    4.4475   54.7656 H       1  ZINC001757264545    0.0700
     45 H45        -6.0173    5.2283   55.3224 H       1  ZINC001757264545    0.0700
     46 H46        -5.5781    2.2217   55.0315 H       1  ZINC001757264545    0.0700
     47 H47        -6.5146    3.2466   53.9174 H       1  ZINC001757264545    0.0800
     48 H48        -8.0565    0.9284   55.8417 H       1  ZINC001757264545    0.4000
     49 H49        -9.7518   -2.0149   51.8389 H       1  ZINC001757264545    0.0600
     50 H50       -11.3864   -2.6373   51.5089 H       1  ZINC001757264545    0.0700
     51 H51       -10.9867   -0.9436   51.1350 H       1  ZINC001757264545    0.0600
     52 H52       -11.3254   -2.2129   55.2066 H       1  ZINC001757264545    0.0600
     53 H53       -11.5841   -3.3785   53.8867 H       1  ZINC001757264545    0.0700
     54 H54        -9.9495   -2.7560   54.2166 H       1  ZINC001757264545    0.0600
     55 H55       -12.9180   -0.1811   52.5246 H       1  ZINC001757264545    0.0600
     56 H56       -13.3177   -1.8749   52.8986 H       1  ZINC001757264545    0.0700
     57 H57       -13.0589   -0.7091   54.2186 H       1  ZINC001757264545    0.0600
@<TRIPOS>BOND
     1     1     2    3
     2     1    28    1
     3     2     3    1
     4     3     4    1
     5     3    29    1
     6     3    30    1
     7     4     5    1
     8     4    31    1
     9     4    32    1
    10     5     6    1
    11     5    33    1
    12     5    34    1
    13     6     7    1
    14     6    35    1
    15     6    36    1
    16     7     8    1
    17     7    37    1
    18     7    38    1
    19     8     9    2
    20     8    10   am
    21    10    11    1
    22    10    39    1
    23    11    12    1
    24    11    17    1
    25    11    13    1
    26    13    14    1
    27    13    40    1
    28    13    41    1
    29    14    15    1
    30    14    42    1
    31    14    43    1
    32    15    16    1
    33    15    44    1
    34    15    45    1
    35    16    17    1
    36    16    46    1
    37    16    47    1
    38    17    18    1
    39    17    19    1
    40    19    20   am
    41    19    48    1
    42    20    21    2
    43    20    22    1
    44    22    23    3
    45    23    24    1
    46    24    25    1
    47    24    26    1
    48    24    27    1
    49    25    49    1
    50    25    50    1
    51    25    51    1
    52    26    52    1
    53    26    53    1
    54    26    54    1
    55    27    55    1
    56    27    56    1
    57    27    57    1
@<TRIPOS>SUBSTRUCTURE
     1 ZINC001757264545        1 TEMP              0 ****  ****    0 ROOT


##########                                Name:    ZINC000599228306
##########                DOCK_Rotatable_Bonds:                   8
##########                         Heavy_Atoms:                  25
##########                    Molecular_Weight:             379.382
##########                DOCK_Rotatable_Bonds:                   8
##########                       Formal_Charge:        -4.09782e-08
##########                     HBond_Acceptors:                  10
##########                        HBond_Donors:                   1
##########                         Heavy_Atoms:                  25
##########                          Grid_Score:          -30.226711
##########                     Grid_vdw_energy:          -28.393351
##########                      Grid_es_energy:           -1.833360
##########           Internal_energy_repulsive:           18.632282

@<TRIPOS>MOLECULE
ZINC000599228306
 44 44 1 0 0
SMALL
USER_CHARGES


@<TRIPOS>ATOM
      1 C1          0.9144    3.9707   42.6549 C.3     1  ZINC000599228306    0.0400
      2 O2          1.7374    3.1555   43.5304 O.3     1  ZINC000599228306   -0.3500
      3 C3          1.3568    1.8758   43.7113 C.2     1  ZINC000599228306    0.5100
      4 O4          0.9955    1.2096   42.7617 O.2     1  ZINC000599228306   -0.4800
      5 C5          1.3786    1.2835   45.0627 C.ar    1  ZINC000599228306   -0.1500
      6 C6          2.5961    0.9823   45.6773 C.ar    1  ZINC000599228306   -0.0100
      7 C7          2.6089    0.4281   46.9420 C.ar    1  ZINC000599228306    0.0700
      8 F8          3.7859    0.1363   47.5378 F       1  ZINC000599228306   -0.1200
      9 C9          1.4175    0.1709   47.6022 C.ar    1  ZINC000599228306    0.0100
     10 C10         0.2084    0.4662   47.0005 C.ar    1  ZINC000599228306   -0.7100
     11 S11        -1.2998    0.1354   47.8496 S.o2    1  ZINC000599228306    2.7000
     12 O12        -2.2066   -0.3645   46.8764 O.2     1  ZINC000599228306   -0.9200
     13 O13        -0.9494   -0.5806   49.0259 O.2     1  ZINC000599228306   -0.9300
     14 N14        -1.9088    1.5911   48.3521 N.am    1  ZINC000599228306   -1.1000
     15 C15        -1.1294    2.4375   49.2589 C.3     1  ZINC000599228306    0.1600
     16 H16        -0.2776    1.8738   49.6397 H       1  ZINC000599228306    0.1300
     17 C17        -0.6287    3.6695   48.5026 C.3     1  ZINC000599228306   -0.1700
     18 C18        -1.9984    2.8736   50.4104 C.2     1  ZINC000599228306    0.4700
     19 O19        -1.7336    2.5198   51.5349 O.2     1  ZINC000599228306   -0.4900
     20 O20        -3.0666    3.6549   50.1866 O.3     1  ZINC000599228306   -0.3400
     21 C21        -3.2067    4.8348   51.0212 C.3     1  ZINC000599228306    0.1200
     22 C22        -4.1617    5.8238   50.3499 C.3     1  ZINC000599228306   -0.1900
     23 C23        -3.7676    4.4305   52.3860 C.3     1  ZINC000599228306   -0.1400
     24 C24        -1.8382    5.4934   51.2071 C.3     1  ZINC000599228306   -0.1800
     25 C25         0.1800    1.0262   45.7368 C.ar    1  ZINC000599228306    0.2500
     26 F26        -1.0024    1.3147   45.1502 F       1  ZINC000599228306   -0.0900
     27 H27         1.3311    4.9761   42.5968 H       1  ZINC000599228306    0.1100
     28 H28         0.8938    3.5277   41.6592 H       1  ZINC000599228306    0.0700
     29 H29        -0.0997    4.0199   43.0516 H       1  ZINC000599228306    0.0700
     30 H30         3.5254    1.1821   45.1644 H       1  ZINC000599228306    0.1700
     31 H31         1.4337   -0.2626   48.5912 H       1  ZINC000599228306    0.1800
     32 H32        -2.7816    1.8834   48.0460 H       1  ZINC000599228306    0.4300
     33 H33        -0.0487    4.2992   49.1774 H       1  ZINC000599228306    0.0900
     34 H34        -0.0001    3.3540   47.6698 H       1  ZINC000599228306    0.0700
     35 H35        -1.4805    4.2331   48.1218 H       1  ZINC000599228306    0.0800
     36 H36        -5.1366    5.3547   50.2174 H       1  ZINC000599228306    0.0600
     37 H37        -4.2668    6.7096   50.9763 H       1  ZINC000599228306    0.0700
     38 H38        -3.7621    6.1119   49.3775 H       1  ZINC000599228306    0.0800
     39 H39        -3.0873    3.7259   52.8642 H       1  ZINC000599228306    0.0700
     40 H40        -3.8728    5.3163   53.0125 H       1  ZINC000599228306    0.0800
     41 H41        -4.7426    3.9613   52.2536 H       1  ZINC000599228306    0.0700
     42 H42        -1.4386    5.7815   50.2347 H       1  ZINC000599228306    0.0800
     43 H43        -1.9434    6.3792   51.8336 H       1  ZINC000599228306    0.0700
     44 H44        -1.1578    4.7888   51.6853 H       1  ZINC000599228306    0.0600
@<TRIPOS>BOND
     1     1     2    1
     2     1    27    1
     3     1    28    1
     4     1    29    1
     5     2     3    1
     6     3     4    2
     7     3     5    1
     8     5    25   ar
     9     5     6   ar
    10     6     7   ar
    11     6    30    1
    12     7     8    1
    13     7     9   ar
    14     9    10   ar
    15     9    31    1
    16    10    11    1
    17    10    25   ar
    18    11    12    2
    19    11    13    2
    20    11    14   am
    21    14    15    1
    22    14    32    1
    23    15    16    1
    24    15    17    1
    25    15    18    1
    26    17    33    1
    27    17    34    1
    28    17    35    1
    29    18    19    2
    30    18    20    1
    31    20    21    1
    32    21    22    1
    33    21    23    1
    34    21    24    1
    35    22    36    1
    36    22    37    1
    37    22    38    1
    38    23    39    1
    39    23    40    1
    40    23    41    1
    41    24    42    1
    42    24    43    1
    43    24    44    1
    44    25    26    1
@<TRIPOS>SUBSTRUCTURE
     1 ZINC000599228306        1 TEMP              0 ****  ****    0 ROOT


##########                                Name:    ZINC000174621331
##########                DOCK_Rotatable_Bonds:                   8
##########                         Heavy_Atoms:                  25
##########                    Molecular_Weight:             366.438
##########                DOCK_Rotatable_Bonds:                   8
##########                       Formal_Charge:        -5.96046e-08
##########                     HBond_Acceptors:                   8
##########                        HBond_Donors:                   3
##########                         Heavy_Atoms:                  25
##########                          Grid_Score:          -30.226227
##########                     Grid_vdw_energy:          -29.058208
##########                      Grid_es_energy:           -1.168018
##########           Internal_energy_repulsive:           13.049051

@<TRIPOS>MOLECULE
ZINC000174621331
 47 48 1 0 0
SMALL
USER_CHARGES


@<TRIPOS>ATOM
      1 C1         -0.8725   -2.5621   48.8509 C.3     1  ZINC000174621331    0.0300
      2 O2         -0.9958   -1.2256   48.3605 O.3     1  ZINC000174621331   -0.3800
      3 C3         -2.3255   -0.7055   48.4182 C.3     1  ZINC000174621331    0.0500
      4 C4         -2.3461    0.7083   47.8339 C.3     1  ZINC000174621331    0.2400
      5 H5         -3.3763    1.0570   47.7621 H       1  ZINC000174621331    0.1300
      6 N6         -1.5856    1.6079   48.7050 N.am    1  ZINC000174621331   -0.7200
      7 C7         -2.1698    2.1435   49.7950 C.2     1  ZINC000174621331    0.5600
      8 O8         -3.3280    1.8815   50.0545 O.2     1  ZINC000174621331   -0.5300
      9 C9         -1.4019    3.0499   50.6751 C.ar    1  ZINC000174621331   -0.1600
     10 C10        -0.4686    3.9323   50.1294 C.ar    1  ZINC000174621331   -0.0200
     11 C11         0.2445    4.7758   50.9563 C.ar    1  ZINC000174621331   -0.1100
     12 C12         1.2528    5.7293   50.3688 C.3     1  ZINC000174621331   -0.1200
     13 C13         0.0354    4.7486   52.3235 C.ar    1  ZINC000174621331    0.0400
     14 C14         0.8174    5.6732   53.2206 C.3     1  ZINC000174621331   -0.1600
     15 C15        -0.8889    3.8764   52.8711 C.ar    1  ZINC000174621331   -0.6800
     16 S16        -1.1478    3.8502   54.6138 S.o2    1  ZINC000174621331    2.7000
     17 N17        -2.5742    3.0539   54.8856 N.am    1  ZINC000174621331   -1.2500
     18 O18        -0.1216    3.0329   55.1597 O.2     1  ZINC000174621331   -0.9500
     19 O19        -1.3597    5.1988   55.0082 O.2     1  ZINC000174621331   -0.9600
     20 C20        -1.6114    3.0309   52.0552 C.ar    1  ZINC000174621331    0.0400
     21 C21        -1.7240    0.6936   46.4613 C.2     1  ZINC000174621331   -0.0200
     22 C22        -1.9087   -0.2535   45.5241 C.2     1  ZINC000174621331   -0.1900
     23 C23        -1.1425    0.1287   44.3990 C.2     1  ZINC000174621331   -0.2100
     24 C24        -0.5354    1.2864   44.7160 C.2     1  ZINC000174621331    0.0000
     25 C25         0.3870    2.0721   43.8199 C.3     1  ZINC000174621331   -0.0800
     26 O26        -0.8959    1.6268   45.9642 O.3     1  ZINC000174621331   -0.1600
     27 H27        -1.1863   -2.5967   49.8942 H       1  ZINC000174621331    0.0400
     28 H28        -1.5034   -3.2258   48.2596 H       1  ZINC000174621331    0.0400
     29 H29         0.1662   -2.8834   48.7730 H       1  ZINC000174621331    0.0900
     30 H30        -2.9918   -1.3468   47.8414 H       1  ZINC000174621331    0.0700
     31 H31        -2.6588   -0.6748   49.4556 H       1  ZINC000174621331    0.0700
     32 H32        -0.6617    1.8179   48.4973 H       1  ZINC000174621331    0.4100
     33 H33        -0.3044    3.9545   49.0622 H       1  ZINC000174621331    0.1400
     34 H34         0.7636    6.6736   50.1297 H       1  ZINC000174621331    0.0800
     35 H35         2.0499    5.9057   51.0910 H       1  ZINC000174621331    0.0800
     36 H36         1.6742    5.2983   49.4606 H       1  ZINC000174621331    0.0700
     37 H37         0.2736    6.6104   53.3390 H       1  ZINC000174621331    0.1100
     38 H38         0.9521    5.2053   54.1958 H       1  ZINC000174621331    0.0700
     39 H39         1.7923    5.8725   52.7756 H       1  ZINC000174621331    0.0900
     40 H40        -2.8963    2.9318   55.7923 H       1  ZINC000174621331    0.4200
     41 H41        -3.0874    2.7096   54.1380 H       1  ZINC000174621331    0.4200
     42 H42        -2.3328    2.3509   52.4837 H       1  ZINC000174621331    0.1600
     43 H43        -2.5237   -1.1366   45.6140 H       1  ZINC000174621331    0.1500
     44 H44        -1.0600   -0.4065   43.4646 H       1  ZINC000174621331    0.1500
     45 H45        -0.1946    2.7842   43.2346 H       1  ZINC000174621331    0.0800
     46 H46         1.1138    2.6099   44.4286 H       1  ZINC000174621331    0.0800
     47 H47         0.9090    1.3903   43.1484 H       1  ZINC000174621331    0.0900
@<TRIPOS>BOND
     1     1     2    1
     2     1    27    1
     3     1    28    1
     4     1    29    1
     5     2     3    1
     6     3     4    1
     7     3    30    1
     8     3    31    1
     9     4     5    1
    10     4     6    1
    11     4    21    1
    12     6     7   am
    13     6    32    1
    14     7     8    2
    15     7     9    1
    16     9    20   ar
    17     9    10   ar
    18    10    11   ar
    19    10    33    1
    20    11    12    1
    21    11    13   ar
    22    12    34    1
    23    12    35    1
    24    12    36    1
    25    13    14    1
    26    13    15   ar
    27    14    37    1
    28    14    38    1
    29    14    39    1
    30    15    16    1
    31    15    20   ar
    32    16    17   am
    33    16    18    2
    34    16    19    2
    35    17    40    1
    36    17    41    1
    37    20    42    1
    38    21    26    1
    39    21    22    2
    40    22    23    1
    41    22    43    1
    42    23    24    2
    43    23    44    1
    44    24    25    1
    45    24    26    1
    46    25    45    1
    47    25    46    1
    48    25    47    1
@<TRIPOS>SUBSTRUCTURE
     1 ZINC000174621331        1 TEMP              0 ****  ****    0 ROOT


##########                                Name:    ZINC000466160459
##########                DOCK_Rotatable_Bonds:                   9
##########                         Heavy_Atoms:                  30
##########                    Molecular_Weight:             420.512
##########                DOCK_Rotatable_Bonds:                   9
##########                       Formal_Charge:          -0.0300007
##########                     HBond_Acceptors:                  10
##########                        HBond_Donors:                   2
##########                         Heavy_Atoms:                  30
##########                          Grid_Score:          -30.226143
##########                     Grid_vdw_energy:          -24.811625
##########                      Grid_es_energy:           -5.414517
##########           Internal_energy_repulsive:          100.359093

@<TRIPOS>MOLECULE
ZINC000466160459
 62 64 1 0 0
SMALL
USER_CHARGES


@<TRIPOS>ATOM
      1 C1         -6.3010    5.3548   59.6126 C.3     1  ZINC000466160459    0.0300
      2 O2         -6.1130    4.6787   58.3677 O.3     1  ZINC000466160459   -0.3900
      3 C3         -5.5043    5.4831   57.3556 C.3     1  ZINC000466160459    0.0500
      4 C4         -4.0792    5.8443   57.7797 C.3     1  ZINC000466160459    0.1200
      5 N5         -3.2810    4.6218   57.9006 N.am    1  ZINC000466160459   -0.7300
      6 C6         -2.7436    4.0564   56.8015 C.2     1  ZINC000466160459    0.5200
      7 O7         -2.9196    4.5605   55.7125 O.2     1  ZINC000466160459   -0.5200
      8 C8         -1.9240    2.7979   56.9257 C.3     1  ZINC000466160459   -0.1300
      9 H9         -2.5787    1.9593   57.1627 H       1  ZINC000466160459    0.1100
     10 C10        -0.8898    2.9696   58.0406 C.3     1  ZINC000466160459   -0.1000
     11 C11         0.0087    4.1676   57.7251 C.3     1  ZINC000466160459   -0.1500
     12 C12         0.7528    3.9107   56.4108 C.3     1  ZINC000466160459    0.1600
     13 H13         1.4325    3.0676   56.5346 H       1  ZINC000466160459    0.0700
     14 C14         1.5482    5.1577   56.0196 C.3     1  ZINC000466160459   -0.1400
     15 N15        -0.2302    3.6014   55.3636 N.am    1  ZINC000466160459   -0.6200
     16 C16        -0.2402    4.2912   54.2058 C.2     1  ZINC000466160459    0.7100
     17 O17         0.5695    5.1790   54.0201 O.2     1  ZINC000466160459   -0.5500
     18 N18        -1.1476    3.9968   53.2538 N.am    1  ZINC000466160459   -0.7300
     19 C19        -1.1584    4.7466   51.9952 C.3     1  ZINC000466160459    0.1600
     20 H20        -0.3202    5.4433   51.9817 H       1  ZINC000466160459    0.1300
     21 C21        -2.4701    5.5269   51.8794 C.3     1  ZINC000466160459   -0.1400
     22 C22        -3.6062    4.5297   51.6217 C.3     1  ZINC000466160459   -0.1400
     23 C23        -3.4152    3.9180   50.2333 C.3     1  ZINC000466160459    0.1100
     24 N24        -2.0555    3.4159   50.0796 N.am    1  ZINC000466160459   -0.5200
     25 C25        -1.8113    2.4808   49.0646 C.2     1  ZINC000466160459    0.2800
     26 N26        -2.2998    1.2644   49.0033 N.2     1  ZINC000466160459   -0.2600
     27 N27        -1.8163    0.6579   47.8370 N.pl3   1  ZINC000466160459   -0.3800
     28 C28        -2.1184   -0.7028   47.3858 C.3     1  ZINC000466160459    0.1000
     29 C29        -1.0238    1.5463   47.2012 C.2     1  ZINC000466160459    0.0700
     30 C30        -1.0061    2.6839   47.9324 C.2     1  ZINC000466160459   -0.2900
     31 C31        -1.0312    3.7907   50.8440 C.2     1  ZINC000466160459    0.4900
     32 O32         0.0659    3.3361   50.5969 O.2     1  ZINC000466160459   -0.4700
     33 C33        -1.2026    2.5251   55.6021 C.3     1  ZINC000466160459    0.1200
     34 H34        -6.7678    4.6770   60.3273 H       1  ZINC000466160459    0.0900
     35 H35        -5.3351    5.6807   59.9985 H       1  ZINC000466160459    0.0400
     36 H36        -6.9433    6.2223   59.4615 H       1  ZINC000466160459    0.0400
     37 H37        -5.4746    4.9271   56.4186 H       1  ZINC000466160459    0.0600
     38 H38        -6.0848    6.3954   57.2185 H       1  ZINC000466160459    0.0700
     39 H39        -3.6318    6.4977   57.0307 H       1  ZINC000466160459    0.0800
     40 H40        -4.1052    6.3577   58.7408 H       1  ZINC000466160459    0.0800
     41 H41        -3.1392    4.2193   58.7717 H       1  ZINC000466160459    0.4000
     42 H42        -1.4018    3.1392   58.9878 H       1  ZINC000466160459    0.0700
     43 H43        -0.2812    2.0683   58.1133 H       1  ZINC000466160459    0.0700
     44 H44        -0.6023    5.0651   57.6278 H       1  ZINC000466160459    0.1000
     45 H45         0.7300    4.3036   58.5309 H       1  ZINC000466160459    0.0700
     46 H46         2.1982    5.4479   56.8451 H       1  ZINC000466160459    0.0400
     47 H47         2.1536    4.9411   55.1394 H       1  ZINC000466160459    0.0800
     48 H48         0.8596    5.9725   55.7955 H       1  ZINC000466160459    0.0600
     49 H49        -1.7935    3.2884   53.4018 H       1  ZINC000466160459    0.3900
     50 H50        -2.6592    6.0667   52.8073 H       1  ZINC000466160459    0.0900
     51 H51        -2.4058    6.2320   51.0508 H       1  ZINC000466160459    0.0900
     52 H52        -3.5795    3.7423   52.3750 H       1  ZINC000466160459    0.0700
     53 H53        -4.5642    5.0477   51.6644 H       1  ZINC000466160459    0.1000
     54 H54        -4.1195    3.0967   50.1014 H       1  ZINC000466160459    0.0900
     55 H55        -3.6064    4.6777   49.4755 H       1  ZINC000466160459    0.0800
     56 H56        -3.0063   -0.6873   46.7537 H       1  ZINC000466160459    0.0700
     57 H57        -1.2743   -1.0929   46.8171 H       1  ZINC000466160459    0.0900
     58 H58        -2.2994   -1.3407   48.2509 H       1  ZINC000466160459    0.0900
     59 H59        -0.5001    1.3799   46.2715 H       1  ZINC000466160459    0.1800
     60 H60        -0.4629    3.5859   47.6921 H       1  ZINC000466160459    0.1500
     61 H61        -0.6823    1.5689   55.6597 H       1  ZINC000466160459    0.0900
     62 H62        -1.9274    2.5005   54.7884 H       1  ZINC000466160459    0.0700
@<TRIPOS>BOND
     1     1     2    1
     2     1    34    1
     3     1    35    1
     4     1    36    1
     5     2     3    1
     6     3     4    1
     7     3    37    1
     8     3    38    1
     9     4     5    1
    10     4    39    1
    11     4    40    1
    12     5     6   am
    13     5    41    1
    14     6     7    2
    15     6     8    1
    16     8     9    1
    17     8    33    1
    18     8    10    1
    19    10    11    1
    20    10    42    1
    21    10    43    1
    22    11    12    1
    23    11    44    1
    24    11    45    1
    25    12    13    1
    26    12    14    1
    27    12    15    1
    28    14    46    1
    29    14    47    1
    30    14    48    1
    31    15    16   am
    32    15    33    1
    33    16    17    2
    34    16    18   am
    35    18    19    1
    36    18    49    1
    37    19    20    1
    38    19    31    1
    39    19    21    1
    40    21    22    1
    41    21    50    1
    42    21    51    1
    43    22    23    1
    44    22    52    1
    45    22    53    1
    46    23    24    1
    47    23    54    1
    48    23    55    1
    49    24    25    1
    50    24    31   am
    51    25    30    1
    52    25    26    2
    53    26    27    1
    54    27    28    1
    55    27    29    1
    56    28    56    1
    57    28    57    1
    58    28    58    1
    59    29    30    2
    60    29    59    1
    61    30    60    1
    62    31    32    2
    63    33    61    1
    64    33    62    1
@<TRIPOS>SUBSTRUCTURE
     1 ZINC000466160459        1 TEMP              0 ****  ****    0 ROOT


##########                                Name:    ZINC000655982608
##########                DOCK_Rotatable_Bonds:                   5
##########                         Heavy_Atoms:                  29
##########                    Molecular_Weight:             388.469
##########                DOCK_Rotatable_Bonds:                   5
##########                       Formal_Charge:          -0.0200006
##########                     HBond_Acceptors:                   6
##########                        HBond_Donors:                   0
##########                         Heavy_Atoms:                  29
##########                          Grid_Score:          -30.205597
##########                     Grid_vdw_energy:          -30.236692
##########                      Grid_es_energy:            0.031096
##########           Internal_energy_repulsive:           19.674133

@<TRIPOS>MOLECULE
ZINC000655982608
 53 57 1 0 0
SMALL
USER_CHARGES


@<TRIPOS>ATOM
      1 C1         -8.7669    3.2474   54.5142 C.3     1  ZINC000655982608   -0.1900
      2 C2         -7.9404    2.0148   54.1422 C.3     1  ZINC000655982608    0.0800
      3 H3         -8.0105    1.2759   54.9405 H       1  ZINC000655982608    0.1000
      4 C4         -8.4781    1.4136   52.8420 C.3     1  ZINC000655982608   -0.0300
      5 C5         -9.4279    0.2887   53.1638 C.2     1  ZINC000655982608    0.2000
      6 N6        -10.2170    0.2075   54.2079 N.2     1  ZINC000655982608   -0.4800
      7 C7        -10.8732   -0.9591   54.0759 C.2     1  ZINC000655982608    0.1700
      8 C8        -11.9020   -1.5162   55.0258 C.3     1  ZINC000655982608   -0.0100
      9 H9        -12.9091   -1.2426   54.7111 H       1  ZINC000655982608    0.1300
     10 C10       -11.7607   -3.0504   55.1569 C.3     1  ZINC000655982608   -0.1400
     11 C11       -12.0607   -3.3274   56.6136 C.2     1  ZINC000655982608    0.5200
     12 O12       -12.3300   -4.4174   57.0723 O.2     1  ZINC000655982608   -0.5000
     13 N13       -11.9848   -2.1898   57.3256 N.am    1  ZINC000655982608   -0.5600
     14 C14       -12.2161   -2.1036   58.7029 C.ar    1  ZINC000655982608    0.1600
     15 C15       -13.3910   -2.6091   59.2441 C.ar    1  ZINC000655982608   -0.1600
     16 C16       -13.6164   -2.5224   60.6040 C.ar    1  ZINC000655982608   -0.0900
     17 C17       -12.6740   -1.9328   61.4263 C.ar    1  ZINC000655982608   -0.1400
     18 C18       -11.5033   -1.4281   60.8906 C.ar    1  ZINC000655982608   -0.0900
     19 C19       -11.2690   -1.5176   59.5323 C.ar    1  ZINC000655982608   -0.1600
     20 C20       -11.6289   -1.0490   56.4727 C.3     1  ZINC000655982608    0.1100
     21 N21       -10.4573   -1.5174   52.9787 N.2     1  ZINC000655982608   -0.3700
     22 O22        -9.6310   -0.8140   52.4366 O.3     1  ZINC000655982608    0.0900
     23 N23        -6.5361    2.4044   53.9576 N.3     1  ZINC000655982608   -0.4700
     24 C24        -6.3753    3.2549   52.7582 C.3     1  ZINC000655982608    0.0300
     25 C25        -5.1853    4.1630   53.1448 C.3     1  ZINC000655982608   -0.0800
     26 C26        -5.2497    4.1760   54.6591 C.ar    1  ZINC000655982608   -0.1400
     27 C27        -4.6662    5.0063   55.5923 C.ar    1  ZINC000655982608   -0.0800
     28 C28        -4.8942    4.8014   56.9415 C.ar    1  ZINC000655982608   -0.1400
     29 C29        -5.7088    3.7626   57.3525 C.ar    1  ZINC000655982608   -0.0900
     30 C30        -6.2932    2.9276   56.4228 C.ar    1  ZINC000655982608   -0.1400
     31 C31        -6.0659    3.1254   55.0621 C.ar    1  ZINC000655982608    0.1000
     32 H32        -9.7841    2.9423   54.7595 H       1  ZINC000655982608    0.0700
     33 H33        -8.3173    3.7397   55.3765 H       1  ZINC000655982608    0.0700
     34 H34        -8.7882    3.9385   53.6715 H       1  ZINC000655982608    0.0700
     35 H35        -9.0041    2.1827   52.2764 H       1  ZINC000655982608    0.1200
     36 H36        -7.6482    1.0299   52.2487 H       1  ZINC000655982608    0.1100
     37 H37       -12.4829   -3.5561   54.5158 H       1  ZINC000655982608    0.1200
     38 H38       -10.7459   -3.3625   54.9103 H       1  ZINC000655982608    0.1200
     39 H39       -14.1277   -3.0690   58.6022 H       1  ZINC000655982608    0.1200
     40 H40       -14.5298   -2.9153   61.0254 H       1  ZINC000655982608    0.1300
     41 H41       -12.8528   -1.8661   62.4893 H       1  ZINC000655982608    0.1200
     42 H42       -10.7695   -0.9677   61.5354 H       1  ZINC000655982608    0.1300
     43 H43       -10.3544   -1.1233   59.1145 H       1  ZINC000655982608    0.1500
     44 H44       -10.5747   -0.8006   56.5956 H       1  ZINC000655982608    0.0900
     45 H45       -12.2510   -0.1877   56.7159 H       1  ZINC000655982608    0.1000
     46 H46        -6.1320    2.6497   51.8848 H       1  ZINC000655982608    0.1000
     47 H47        -7.2726    3.8477   52.5814 H       1  ZINC000655982608    0.0700
     48 H48        -4.2442    3.7329   52.8020 H       1  ZINC000655982608    0.0900
     49 H49        -5.3204    5.1676   52.7441 H       1  ZINC000655982608    0.0800
     50 H50        -4.0301    5.8173   55.2699 H       1  ZINC000655982608    0.1200
     51 H51        -4.4365    5.4516   57.6723 H       1  ZINC000655982608    0.1200
     52 H52        -5.8879    3.6040   58.4056 H       1  ZINC000655982608    0.1300
     53 H53        -6.9282    2.1177   56.7503 H       1  ZINC000655982608    0.1200
@<TRIPOS>BOND
     1     1     2    1
     2     1    32    1
     3     1    33    1
     4     1    34    1
     5     2     3    1
     6     2     4    1
     7     2    23    1
     8     4     5    1
     9     4    35    1
    10     4    36    1
    11     5    22    1
    12     5     6    2
    13     6     7    1
    14     7     8    1
    15     7    21    2
    16     8     9    1
    17     8    20    1
    18     8    10    1
    19    10    11    1
    20    10    37    1
    21    10    38    1
    22    11    12    2
    23    11    13   am
    24    13    14    1
    25    13    20    1
    26    14    19   ar
    27    14    15   ar
    28    15    16   ar
    29    15    39    1
    30    16    17   ar
    31    16    40    1
    32    17    18   ar
    33    17    41    1
    34    18    19   ar
    35    18    42    1
    36    19    43    1
    37    20    44    1
    38    20    45    1
    39    21    22    1
    40    23    31    1
    41    23    24    1
    42    24    25    1
    43    24    46    1
    44    24    47    1
    45    25    26    1
    46    25    48    1
    47    25    49    1
    48    26    31   ar
    49    26    27   ar
    50    27    28   ar
    51    27    50    1
    52    28    29   ar
    53    28    51    1
    54    29    30   ar
    55    29    52    1
    56    30    31   ar
    57    30    53    1
@<TRIPOS>SUBSTRUCTURE
     1 ZINC000655982608        1 TEMP              0 ****  ****    0 ROOT


##########                                Name:    ZINC000132775118
##########                DOCK_Rotatable_Bonds:                   5
##########                         Heavy_Atoms:                  27
##########                    Molecular_Weight:             376.499
##########                DOCK_Rotatable_Bonds:                   5
##########                       Formal_Charge:        -4.76837e-07
##########                     HBond_Acceptors:                   7
##########                        HBond_Donors:                   1
##########                         Heavy_Atoms:                  27
##########                          Grid_Score:          -30.191229
##########                     Grid_vdw_energy:          -29.971279
##########                      Grid_es_energy:           -0.219950
##########           Internal_energy_repulsive:           72.887802

@<TRIPOS>MOLECULE
ZINC000132775118
 59 62 1 0 0
SMALL
USER_CHARGES


@<TRIPOS>ATOM
      1 O1        -13.3306   -0.6123   59.6270 O.2     1  ZINC000132775118   -0.5200
      2 C2        -12.1878   -0.5775   59.2226 C.2     1  ZINC000132775118    0.5200
      3 C3        -11.9019   -0.1446   57.8077 C.3     1  ZINC000132775118    0.0300
      4 N4        -11.5789   -1.3222   56.9912 N.3     1  ZINC000132775118   -0.5100
      5 C5        -12.4753   -2.4440   57.3066 C.3     1  ZINC000132775118    0.0300
      6 C6        -12.2861   -3.5651   56.3257 C.2     1  ZINC000132775118    0.5300
      7 O7        -12.7310   -4.6580   56.6059 O.2     1  ZINC000132775118   -0.5500
      8 N8        -11.6501   -3.4165   55.1558 N.am    1  ZINC000132775118   -0.7200
      9 C9        -11.0274   -2.1573   54.7714 C.3     1  ZINC000132775118    0.1500
     10 H10        -9.9631   -2.2038   55.0024 H       1  ZINC000132775118    0.0800
     11 C11       -11.1991   -1.8772   53.2802 C.3     1  ZINC000132775118   -0.1300
     12 C12       -10.4695   -0.5755   52.9334 C.3     1  ZINC000132775118   -0.1200
     13 C13       -11.0438    0.5798   53.7537 C.3     1  ZINC000132775118   -0.1200
     14 C14       -10.8979    0.2832   55.2497 C.3     1  ZINC000132775118   -0.1200
     15 C15       -11.6570   -1.0073   55.5602 C.3     1  ZINC000132775118    0.0700
     16 H16       -12.7038   -0.8873   55.2813 H       1  ZINC000132775118    0.0600
     17 N17       -11.1729   -0.9206   60.0404 N.am    1  ZINC000132775118   -0.6200
     18 C18        -9.7822   -0.8719   59.5688 C.3     1  ZINC000132775118    0.1100
     19 C19        -8.9611   -0.0199   60.5418 C.3     1  ZINC000132775118   -0.1200
     20 C20        -9.1249   -0.5715   61.9598 C.3     1  ZINC000132775118   -0.1000
     21 C21        -8.2915    0.2436   62.9150 C.2     1  ZINC000132775118    0.5300
     22 O22        -7.5664   -0.3117   63.7129 O.2     1  ZINC000132775118   -0.5300
     23 N23        -8.3521    1.5896   62.8824 N.am    1  ZINC000132775118   -0.6200
     24 C24        -7.5918    2.5027   63.7483 C.3     1  ZINC000132775118    0.1000
     25 C25        -8.0023    3.9414   63.3696 C.3     1  ZINC000132775118   -0.1300
     26 C26        -9.3883    3.7427   62.7011 C.3     1  ZINC000132775118   -0.1300
     27 C27        -9.1867    2.3903   61.9682 C.3     1  ZINC000132775118    0.1000
     28 C28       -10.5965   -0.4932   62.3727 C.3     1  ZINC000132775118   -0.1200
     29 C29       -11.4357   -1.3448   61.4223 C.3     1  ZINC000132775118    0.1200
     30 H30       -12.7795    0.3536   57.3959 H       1  ZINC000132775118    0.0700
     31 H31       -11.0571    0.5443   57.8023 H       1  ZINC000132775118    0.1200
     32 H32       -12.2582   -2.8057   58.3117 H       1  ZINC000132775118    0.1300
     33 H33       -13.5089   -2.1006   57.2647 H       1  ZINC000132775118    0.0700
     34 H34       -11.6027   -4.1701   54.5468 H       1  ZINC000132775118    0.4000
     35 H35       -10.7746   -2.6987   52.7031 H       1  ZINC000132775118    0.0800
     36 H36       -12.2591   -1.7748   53.0476 H       1  ZINC000132775118    0.0700
     37 H37        -9.4081   -0.6850   53.1565 H       1  ZINC000132775118    0.0700
     38 H38       -10.5943   -0.3625   51.8717 H       1  ZINC000132775118    0.0700
     39 H39       -10.5064    1.4970   53.5127 H       1  ZINC000132775118    0.0700
     40 H40       -12.0990    0.7062   53.5111 H       1  ZINC000132775118    0.0600
     41 H41        -9.8429    0.1666   55.4975 H       1  ZINC000132775118    0.0800
     42 H42       -11.3221    1.1042   55.8277 H       1  ZINC000132775118    0.0700
     43 H43        -9.3732   -1.8816   59.5324 H       1  ZINC000132775118    0.0800
     44 H44        -9.7489   -0.4258   58.5748 H       1  ZINC000132775118    0.0900
     45 H45        -7.9095   -0.0544   60.2572 H       1  ZINC000132775118    0.0800
     46 H46        -9.3137    1.0110   60.5094 H       1  ZINC000132775118    0.0800
     47 H47        -8.7955   -1.6102   61.9858 H       1  ZINC000132775118    0.0900
     48 H48        -7.8349    2.3108   64.7934 H       1  ZINC000132775118    0.0700
     49 H49        -6.5231    2.3665   63.5831 H       1  ZINC000132775118    0.0700
     50 H50        -8.0893    4.5645   64.2597 H       1  ZINC000132775118    0.0800
     51 H51        -7.2919    4.3720   62.6639 H       1  ZINC000132775118    0.0800
     52 H52       -10.1768    3.6712   63.4502 H       1  ZINC000132775118    0.0800
     53 H53        -9.5977    4.5425   61.9907 H       1  ZINC000132775118    0.0900
     54 H54        -8.6760    2.5462   61.0180 H       1  ZINC000132775118    0.0700
     55 H55       -10.1465    1.8991   61.8079 H       1  ZINC000132775118    0.0800
     56 H56       -10.7089   -0.8645   63.3913 H       1  ZINC000132775118    0.0800
     57 H57       -10.9337    0.5421   62.3231 H       1  ZINC000132775118    0.0800
     58 H58       -12.4932   -1.2136   61.6514 H       1  ZINC000132775118    0.1000
     59 H59       -11.1628   -2.3941   61.5345 H       1  ZINC000132775118    0.0700
@<TRIPOS>BOND
     1     1     2    2
     2     2     3    1
     3     2    17   am
     4     3     4    1
     5     3    30    1
     6     3    31    1
     7     4    15    1
     8     4     5    1
     9     5     6    1
    10     5    32    1
    11     5    33    1
    12     6     7    2
    13     6     8   am
    14     8     9    1
    15     8    34    1
    16     9    10    1
    17     9    15    1
    18     9    11    1
    19    11    12    1
    20    11    35    1
    21    11    36    1
    22    12    13    1
    23    12    37    1
    24    12    38    1
    25    13    14    1
    26    13    39    1
    27    13    40    1
    28    14    15    1
    29    14    41    1
    30    14    42    1
    31    15    16    1
    32    17    29    1
    33    17    18    1
    34    18    19    1
    35    18    43    1
    36    18    44    1
    37    19    20    1
    38    19    45    1
    39    19    46    1
    40    20    21    1
    41    20    28    1
    42    20    47    1
    43    21    22    2
    44    21    23   am
    45    23    27    1
    46    23    24    1
    47    24    25    1
    48    24    48    1
    49    24    49    1
    50    25    26    1
    51    25    50    1
    52    25    51    1
    53    26    27    1
    54    26    52    1
    55    26    53    1
    56    27    54    1
    57    27    55    1
    58    28    29    1
    59    28    56    1
    60    28    57    1
    61    29    58    1
    62    29    59    1
@<TRIPOS>SUBSTRUCTURE
     1 ZINC000132775118        1 TEMP              0 ****  ****    0 ROOT


##########                                Name:    ZINC000949401225
##########                DOCK_Rotatable_Bonds:                   7
##########                         Heavy_Atoms:                  24
##########                    Molecular_Weight:             332.403
##########                DOCK_Rotatable_Bonds:                   7
##########                       Formal_Charge:                0.03
##########                     HBond_Acceptors:                   7
##########                        HBond_Donors:                   1
##########                         Heavy_Atoms:                  24
##########                          Grid_Score:          -30.172804
##########                     Grid_vdw_energy:          -30.662167
##########                      Grid_es_energy:            0.489364
##########           Internal_energy_repulsive:           12.835155

@<TRIPOS>MOLECULE
ZINC000949401225
 48 50 1 0 0
SMALL
USER_CHARGES


@<TRIPOS>ATOM
      1 C1         -8.3053    4.2040   53.6487 C.3     1  ZINC000949401225    0.0700
      2 N2         -6.9717    4.3087   53.0515 N.pl3   1  ZINC000949401225   -0.4500
      3 C3         -6.1738    5.4137   53.1143 C.2     1  ZINC000949401225   -0.0100
      4 C4         -5.0260    5.1589   52.4613 C.2     1  ZINC000949401225   -0.1700
      5 C5         -5.1335    3.7848   51.9591 C.2     1  ZINC000949401225   -0.2400
      6 C6         -4.1263    3.0463   51.1787 C.2     1  ZINC000949401225    0.5900
      7 O7         -4.3505    1.9057   50.8212 O.2     1  ZINC000949401225   -0.5500
      8 N8         -2.9562    3.6346   50.8608 N.am    1  ZINC000949401225   -0.7300
      9 C9         -1.9535    2.8994   50.0859 C.3     1  ZINC000949401225    0.1200
     10 C10        -1.1857    3.8737   49.1904 C.3     1  ZINC000949401225    0.1200
     11 H11        -1.7975    4.2744   48.3821 H       1  ZINC000949401225    0.1000
     12 C12        -0.4240    4.9525   49.9728 C.3     1  ZINC000949401225   -0.1500
     13 C13         0.6521    4.7143   48.9044 C.3     1  ZINC000949401225    0.1000
     14 N14         0.1141    3.3545   48.7390 N.am    1  ZINC000949401225   -0.6400
     15 C15         0.5997    2.1595   48.3481 C.2     1  ZINC000949401225    0.5500
     16 O16         1.7643    2.0541   48.0263 O.2     1  ZINC000949401225   -0.5200
     17 C17        -0.3044    0.9545   48.3110 C.3     1  ZINC000949401225   -0.1400
     18 C18        -1.2970    1.0970   47.1554 C.3     1  ZINC000949401225    0.1500
     19 H19        -1.9830    1.9221   47.3477 H       1  ZINC000949401225    0.0900
     20 C20        -0.5419    1.3280   45.8276 C.3     1  ZINC000949401225   -0.1200
     21 C21        -1.4303    0.5594   44.8220 C.3     1  ZINC000949401225   -0.1600
     22 C22        -2.1379   -0.4761   45.6680 C.2     1  ZINC000949401225    0.5200
     23 O23        -2.7076   -1.4553   45.2351 O.2     1  ZINC000949401225   -0.5300
     24 N24        -2.0444   -0.1524   46.9708 N.am    1  ZINC000949401225   -0.6200
     25 C25        -2.6131   -0.9466   48.0627 C.3     1  ZINC000949401225    0.0900
     26 C26        -6.3556    3.3260   52.3670 C.2     1  ZINC000949401225    0.0800
     27 H27        -8.2180    3.8322   54.6695 H       1  ZINC000949401225    0.0800
     28 H28        -8.7769    5.1867   53.6589 H       1  ZINC000949401225    0.0900
     29 H29        -8.9131    3.5153   53.0618 H       1  ZINC000949401225    0.0900
     30 H30        -6.4232    6.3415   53.6076 H       1  ZINC000949401225    0.1700
     31 H31        -4.1914    5.8320   52.3320 H       1  ZINC000949401225    0.1500
     32 H32        -2.7779    4.5447   51.1449 H       1  ZINC000949401225    0.4000
     33 H33        -1.2587    2.4063   50.7658 H       1  ZINC000949401225    0.0700
     34 H34        -2.4492    2.1510   49.4675 H       1  ZINC000949401225    0.0900
     35 H35        -0.8821    5.9406   49.9332 H       1  ZINC000949401225    0.1000
     36 H36        -0.1299    4.6514   50.9782 H       1  ZINC000949401225    0.1000
     37 H37         0.5306    5.3388   48.0192 H       1  ZINC000949401225    0.0900
     38 H38         1.6679    4.7349   49.2993 H       1  ZINC000949401225    0.0800
     39 H39         0.2944    0.0552   48.1668 H       1  ZINC000949401225    0.1000
     40 H40        -0.8501    0.8807   49.2517 H       1  ZINC000949401225    0.1000
     41 H41        -0.5019    2.3889   45.5811 H       1  ZINC000949401225    0.1000
     42 H42         0.4598    0.9006   45.8692 H       1  ZINC000949401225    0.0800
     43 H43        -2.1524    1.2320   44.3592 H       1  ZINC000949401225    0.1100
     44 H44        -0.8161    0.0762   44.0622 H       1  ZINC000949401225    0.1000
     45 H45        -3.0389   -1.8656   47.6600 H       1  ZINC000949401225    0.0800
     46 H46        -1.8293   -1.1928   48.7792 H       1  ZINC000949401225    0.0600
     47 H47        -3.3939   -0.3723   48.5613 H       1  ZINC000949401225    0.0600
     48 H48        -6.7606    2.3447   52.1684 H       1  ZINC000949401225    0.1800
@<TRIPOS>BOND
     1     1     2    1
     2     1    27    1
     3     1    28    1
     4     1    29    1
     5     2    26    1
     6     2     3    1
     7     3     4    2
     8     3    30    1
     9     4     5    1
    10     4    31    1
    11     5     6    1
    12     5    26    2
    13     6     7    2
    14     6     8   am
    15     8     9    1
    16     8    32    1
    17     9    10    1
    18     9    33    1
    19     9    34    1
    20    10    11    1
    21    10    14    1
    22    10    12    1
    23    12    13    1
    24    12    35    1
    25    12    36    1
    26    13    14    1
    27    13    37    1
    28    13    38    1
    29    14    15   am
    30    15    16    2
    31    15    17    1
    32    17    18    1
    33    17    39    1
    34    17    40    1
    35    18    19    1
    36    18    24    1
    37    18    20    1
    38    20    21    1
    39    20    41    1
    40    20    42    1
    41    21    22    1
    42    21    43    1
    43    21    44    1
    44    22    23    2
    45    22    24   am
    46    24    25    1
    47    25    45    1
    48    25    46    1
    49    25    47    1
    50    26    48    1
@<TRIPOS>SUBSTRUCTURE
     1 ZINC000949401225        1 TEMP              0 ****  ****    0 ROOT


##########                                Name:    ZINC001143596311
##########                DOCK_Rotatable_Bonds:                   9
##########                         Heavy_Atoms:                  21
##########                    Molecular_Weight:             335.811
##########                DOCK_Rotatable_Bonds:                   9
##########                       Formal_Charge:          0.00999959
##########                     HBond_Acceptors:                   9
##########                        HBond_Donors:                   3
##########                         Heavy_Atoms:                  21
##########                          Grid_Score:          -30.078276
##########                     Grid_vdw_energy:          -28.582382
##########                      Grid_es_energy:           -1.495894
##########           Internal_energy_repulsive:           10.229671

@<TRIPOS>MOLECULE
ZINC001143596311
 39 39 1 0 0
SMALL
USER_CHARGES


@<TRIPOS>ATOM
      1 C1         -9.3381    0.7763   52.0612 C.3     1  ZINC001143596311    0.0400
      2 O2         -8.0658    1.1275   52.6089 O.3     1  ZINC001143596311   -0.2600
      3 N3         -7.8470    2.5691   52.7286 N.3     1  ZINC001143596311   -0.3700
      4 C4         -8.7548    3.1586   53.7218 C.3     1  ZINC001143596311    0.0000
      5 C5         -6.4455    2.8634   53.0563 C.3     1  ZINC001143596311    0.0400
      6 C6         -6.0985    4.2780   52.5879 C.3     1  ZINC001143596311   -0.1300
      7 C7         -4.5785    4.4518   52.5729 C.3     1  ZINC001143596311    0.1200
      8 N8         -4.0420    3.9498   51.3054 N.am    1  ZINC001143596311   -0.7200
      9 C9         -2.7220    3.7078   51.1811 C.2     1  ZINC001143596311    0.5600
     10 O10        -1.9768    3.9046   52.1211 O.2     1  ZINC001143596311   -0.5200
     11 C11        -2.1806    3.2031   49.9020 C.ar    1  ZINC001143596311   -0.1500
     12 C12        -1.3462    4.0105   49.1269 C.ar    1  ZINC001143596311   -0.0200
     13 C13        -0.8440    3.5340   47.9342 C.ar    1  ZINC001143596311   -0.1300
     14 C14        -1.1661    2.2573   47.5048 C.ar    1  ZINC001143596311    0.0700
     15 Cl15       -0.5300    1.6644   46.0023 Cl      1  ZINC001143596311   -0.0200
     16 C16        -1.9935    1.4514   48.2697 C.ar    1  ZINC001143596311   -0.6800
     17 S17        -2.3971   -0.1718   47.7153 S.o2    1  ZINC001143596311    2.7000
     18 N18        -0.9710   -0.9867   47.5050 N.am    1  ZINC001143596311   -1.2500
     19 O19        -3.0681   -0.8088   48.7938 O.2     1  ZINC001143596311   -0.9400
     20 O20        -2.9691   -0.0237   46.4229 O.2     1  ZINC001143596311   -0.9500
     21 C21        -2.4967    1.9145   49.4668 C.ar    1  ZINC001143596311    0.0500
     22 H22       -10.1294    1.1699   52.6991 H       1  ZINC001143596311    0.0400
     23 H23        -9.4328    1.2002   51.0614 H       1  ZINC001143596311    0.0500
     24 H24        -9.4224   -0.3090   52.0052 H       1  ZINC001143596311    0.0900
     25 H25        -8.5798    2.6966   54.6934 H       1  ZINC001143596311    0.0400
     26 H26        -8.5708    4.2307   53.7909 H       1  ZINC001143596311    0.0900
     27 H27        -9.7872    2.9859   53.4180 H       1  ZINC001143596311    0.0800
     28 H28        -6.3017    2.7922   54.1344 H       1  ZINC001143596311    0.0500
     29 H29        -5.7967    2.1452   52.5550 H       1  ZINC001143596311    0.0900
     30 H30        -6.4920    4.4350   51.5835 H       1  ZINC001143596311    0.0800
     31 H31        -6.5406    5.0050   53.2690 H       1  ZINC001143596311    0.0800
     32 H32        -4.3325    5.5084   52.6785 H       1  ZINC001143596311    0.0800
     33 H33        -4.1407    3.8926   53.3997 H       1  ZINC001143596311    0.0800
     34 H34        -4.6368    3.7917   50.5557 H       1  ZINC001143596311    0.4000
     35 H35        -1.0950    5.0065   49.4605 H       1  ZINC001143596311    0.1500
     36 H36        -0.1985    4.1577   47.3336 H       1  ZINC001143596311    0.1600
     37 H37        -0.9790   -1.9078   47.2008 H       1  ZINC001143596311    0.4200
     38 H38        -0.1276   -0.5430   47.6859 H       1  ZINC001143596311    0.4200
     39 H39        -3.1417    1.2853   50.0623 H       1  ZINC001143596311    0.1700
@<TRIPOS>BOND
     1     1     2    1
     2     1    22    1
     3     1    23    1
     4     1    24    1
     5     2     3    1
     6     3     4    1
     7     3     5    1
     8     4    25    1
     9     4    26    1
    10     4    27    1
    11     5     6    1
    12     5    28    1
    13     5    29    1
    14     6     7    1
    15     6    30    1
    16     6    31    1
    17     7     8    1
    18     7    32    1
    19     7    33    1
    20     8     9   am
    21     8    34    1
    22     9    10    2
    23     9    11    1
    24    11    21   ar
    25    11    12   ar
    26    12    13   ar
    27    12    35    1
    28    13    14   ar
    29    13    36    1
    30    14    15    1
    31    14    16   ar
    32    16    17    1
    33    16    21   ar
    34    17    18   am
    35    17    19    2
    36    17    20    2
    37    18    37    1
    38    18    38    1
    39    21    39    1
@<TRIPOS>SUBSTRUCTURE
     1 ZINC001143596311        1 TEMP              0 ****  ****    0 ROOT


##########                                Name:    ZINC000225856071
##########                DOCK_Rotatable_Bonds:                   6
##########                         Heavy_Atoms:                  29
##########                    Molecular_Weight:             409.549
##########                DOCK_Rotatable_Bonds:                   6
##########                       Formal_Charge:         -0.00999989
##########                     HBond_Acceptors:                   5
##########                        HBond_Donors:                   1
##########                         Heavy_Atoms:                  29
##########                          Grid_Score:          -30.071316
##########                     Grid_vdw_energy:          -29.403168
##########                      Grid_es_energy:           -0.668147
##########           Internal_energy_repulsive:           41.226147

@<TRIPOS>MOLECULE
ZINC000225856071
 56 58 1 0 0
SMALL
USER_CHARGES


@<TRIPOS>ATOM
      1 C1        -10.2596   -1.7816   61.1764 C.3     1  ZINC000225856071    0.0200
      2 O2        -10.6217   -0.7485   60.2580 O.3     1  ZINC000225856071   -0.3100
      3 C3        -10.9166   -1.1285   58.9869 C.ar    1  ZINC000225856071    0.1900
      4 C4        -11.9168   -2.0611   58.7550 C.ar    1  ZINC000225856071   -0.2300
      5 C5        -12.2151   -2.4454   57.4618 C.ar    1  ZINC000225856071    0.0700
      6 C6        -13.3017   -3.4585   57.2092 C.3     1  ZINC000225856071   -0.1800
      7 C7        -11.5179   -1.9009   56.3994 C.ar    1  ZINC000225856071   -0.7100
      8 S8        -11.9010   -2.3927   54.7514 S.o2    1  ZINC000225856071    2.7000
      9 O9        -11.2377   -3.6310   54.5377 O.2     1  ZINC000225856071   -0.9600
     10 O10       -13.3040   -2.2259   54.5989 O.2     1  ZINC000225856071   -0.9500
     11 N11       -11.1867   -1.2979   53.7347 N.am    1  ZINC000225856071   -1.1100
     12 C12       -11.5500    0.1193   53.8124 C.3     1  ZINC000225856071    0.2400
     13 H13       -12.1123    0.3005   54.7284 H       1  ZINC000225856071    0.1100
     14 C14       -12.3975    0.4866   52.6217 C.ar    1  ZINC000225856071   -0.1000
     15 C15       -13.0351   -0.5020   51.8958 C.ar    1  ZINC000225856071   -0.1000
     16 C16       -13.8126   -0.1650   50.8036 C.ar    1  ZINC000225856071   -0.1200
     17 C17       -13.9529    1.1607   50.4376 C.ar    1  ZINC000225856071   -0.1100
     18 C18       -13.3160    2.1494   51.1642 C.ar    1  ZINC000225856071   -0.1100
     19 C19       -12.5420    1.8127   52.2589 C.ar    1  ZINC000225856071   -0.1000
     20 C20       -10.2987    0.9590   53.8165 C.ar    1  ZINC000225856071   -0.0900
     21 C21       -10.1370    1.9535   54.7627 C.ar    1  ZINC000225856071   -0.1000
     22 C22        -8.9889    2.7239   54.7665 C.ar    1  ZINC000225856071   -0.1200
     23 C23        -8.0029    2.4993   53.8245 C.ar    1  ZINC000225856071   -0.0800
     24 C24        -6.7517    3.3395   53.8283 C.3     1  ZINC000225856071   -0.1200
     25 C25        -8.1640    1.5037   52.8789 C.ar    1  ZINC000225856071   -0.1200
     26 C26        -9.3099    0.7310   52.8774 C.ar    1  ZINC000225856071   -0.0600
     27 C27        -9.4856   -0.3544   51.8468 C.3     1  ZINC000225856071   -0.1300
     28 C28       -10.5205   -0.9707   56.6280 C.ar    1  ZINC000225856071    0.0200
     29 C29       -10.2215   -0.5800   57.9187 C.ar    1  ZINC000225856071   -0.1400
     30 C30        -9.1348    0.4342   58.1669 C.3     1  ZINC000225856071   -0.1100
     31 H31        -9.3714   -2.2975   60.8114 H       1  ZINC000225856071    0.0600
     32 H32       -10.0499   -1.3433   62.1522 H       1  ZINC000225856071    0.1000
     33 H33       -11.0813   -2.4922   61.2664 H       1  ZINC000225856071    0.0600
     34 H34       -12.4619   -2.4866   59.5846 H       1  ZINC000225856071    0.1400
     35 H35       -14.2534   -2.9445   57.0738 H       1  ZINC000225856071    0.0900
     36 H36       -13.0654   -4.0282   56.3105 H       1  ZINC000225856071    0.1000
     37 H37       -13.3724   -4.1356   58.0604 H       1  ZINC000225856071    0.0800
     38 H38       -10.5279   -1.5949   53.0878 H       1  ZINC000225856071    0.4200
     39 H39       -12.9256   -1.5377   52.1817 H       1  ZINC000225856071    0.1200
     40 H40       -14.3102   -0.9375   50.2359 H       1  ZINC000225856071    0.1200
     41 H41       -14.5597    1.4239   49.5839 H       1  ZINC000225856071    0.1200
     42 H42       -13.4253    3.1849   50.8780 H       1  ZINC000225856071    0.1200
     43 H43       -12.0445    2.5851   52.8265 H       1  ZINC000225856071    0.1200
     44 H44       -10.9076    2.1290   55.4988 H       1  ZINC000225856071    0.1200
     45 H45        -8.8630    3.5015   55.5054 H       1  ZINC000225856071    0.1200
     46 H46        -5.9997    2.8683   54.4613 H       1  ZINC000225856071    0.0700
     47 H47        -6.3686    3.4253   52.8115 H       1  ZINC000225856071    0.0700
     48 H48        -6.9820    4.3322   54.2150 H       1  ZINC000225856071    0.0700
     49 H49        -7.3932    1.3279   52.1431 H       1  ZINC000225856071    0.1200
     50 H50        -9.0752   -1.2888   52.2295 H       1  ZINC000225856071    0.0800
     51 H51       -10.5466   -0.4841   51.6330 H       1  ZINC000225856071    0.0700
     52 H52        -8.9622   -0.0752   50.9323 H       1  ZINC000225856071    0.0700
     53 H53        -9.9775   -0.5465   55.7963 H       1  ZINC000225856071    0.1500
     54 H54        -9.5639    1.4362   58.1576 H       1  ZINC000225856071    0.0700
     55 H55        -8.6757    0.2446   59.1372 H       1  ZINC000225856071    0.0700
     56 H56        -8.3788    0.3554   57.3856 H       1  ZINC000225856071    0.0700
@<TRIPOS>BOND
     1     1     2    1
     2     1    31    1
     3     1    32    1
     4     1    33    1
     5     2     3    1
     6     3    29   ar
     7     3     4   ar
     8     4     5   ar
     9     4    34    1
    10     5     6    1
    11     5     7   ar
    12     6    35    1
    13     6    36    1
    14     6    37    1
    15     7     8    1
    16     7    28   ar
    17     8     9    2
    18     8    10    2
    19     8    11   am
    20    11    12    1
    21    11    38    1
    22    12    13    1
    23    12    14    1
    24    12    20    1
    25    14    19   ar
    26    14    15   ar
    27    15    16   ar
    28    15    39    1
    29    16    17   ar
    30    16    40    1
    31    17    18   ar
    32    17    41    1
    33    18    19   ar
    34    18    42    1
    35    19    43    1
    36    20    26   ar
    37    20    21   ar
    38    21    22   ar
    39    21    44    1
    40    22    23   ar
    41    22    45    1
    42    23    24    1
    43    23    25   ar
    44    24    46    1
    45    24    47    1
    46    24    48    1
    47    25    26   ar
    48    25    49    1
    49    26    27    1
    50    27    50    1
    51    27    51    1
    52    27    52    1
    53    28    29   ar
    54    28    53    1
    55    29    30    1
    56    30    54    1
    57    30    55    1
    58    30    56    1
@<TRIPOS>SUBSTRUCTURE
     1 ZINC000225856071        1 TEMP              0 ****  ****    0 ROOT


##########                                Name:    ZINC000654672208
##########                DOCK_Rotatable_Bonds:                   5
##########                         Heavy_Atoms:                  25
##########                    Molecular_Weight:             365.497
##########                DOCK_Rotatable_Bonds:                   5
##########                       Formal_Charge:           0.0100001
##########                     HBond_Acceptors:                   7
##########                        HBond_Donors:                   1
##########                         Heavy_Atoms:                  25
##########                          Grid_Score:          -30.067551
##########                     Grid_vdw_energy:          -30.144743
##########                      Grid_es_energy:            0.077193
##########           Internal_energy_repulsive:           14.034835

@<TRIPOS>MOLECULE
ZINC000654672208
 52 54 1 0 0
SMALL
USER_CHARGES


@<TRIPOS>ATOM
      1 C1         -8.0202    0.7365   64.9415 C.3     1  ZINC000654672208   -0.1100
      2 C2         -8.6368    0.1494   63.6981 C.ar    1  ZINC000654672208   -0.1300
      3 C3         -7.8742   -0.6079   62.8295 C.ar    1  ZINC000654672208    0.1000
      4 N4         -8.4069   -1.1253   61.7397 N.ar    1  ZINC000654672208   -0.4700
      5 C5         -9.6770   -0.9441   61.4354 C.ar    1  ZINC000654672208    0.1200
      6 C6        -10.2363   -1.5574   60.1776 C.3     1  ZINC000654672208   -0.0900
      7 C7        -10.0607   -0.5814   59.0125 C.3     1  ZINC000654672208    0.1500
      8 N8        -10.5874   -1.1851   57.7861 N.am    1  ZINC000654672208   -0.7500
      9 C9        -11.0546   -0.3999   56.7953 C.2     1  ZINC000654672208    0.7100
     10 O10       -11.0389    0.8096   56.9194 O.2     1  ZINC000654672208   -0.5800
     11 N11       -11.5392   -0.9552   55.6669 N.am    1  ZINC000654672208   -0.6300
     12 C12       -11.5645   -2.4151   55.5029 C.3     1  ZINC000654672208    0.1300
     13 C13       -10.8568   -2.7752   54.1929 C.3     1  ZINC000654672208   -0.1400
     14 C14       -11.5006   -2.0025   53.0401 C.3     1  ZINC000654672208   -0.1100
     15 C15       -11.3340   -0.4968   53.2775 C.3     1  ZINC000654672208   -0.0600
     16 C16       -11.9690    0.2686   52.1120 C.3     1  ZINC000654672208   -0.1200
     17 C17       -11.2177    1.6126   51.9313 C.3     1  ZINC000654672208   -0.5800
     18 S18        -9.4725    1.0756   52.1434 S.o2    1  ZINC000654672208    2.3800
     19 O19        -9.0244    0.4311   50.9589 O.2     1  ZINC000654672208   -0.9300
     20 O20        -8.7128    2.1350   52.7088 O.2     1  ZINC000654672208   -0.9300
     21 C21        -9.8360   -0.1803   53.4268 C.3     1  ZINC000654672208   -0.5800
     22 C22       -12.0572   -0.1123   54.5813 C.3     1  ZINC000654672208    0.1200
     23 C23       -10.5014   -0.1984   62.2569 C.ar    1  ZINC000654672208   -0.1200
     24 C24       -11.9520    0.0034   61.9018 C.3     1  ZINC000654672208   -0.1200
     25 C25        -9.9781    0.3574   63.4141 C.ar    1  ZINC000654672208   -0.0800
     26 H26        -8.1141    0.0269   65.7636 H       1  ZINC000654672208    0.0700
     27 H27        -6.9658    0.9453   64.7604 H       1  ZINC000654672208    0.0700
     28 H28        -8.5347    1.6620   65.2000 H       1  ZINC000654672208    0.0700
     29 H29        -6.8297   -0.7776   63.0455 H       1  ZINC000654672208    0.1600
     30 H30        -9.7059   -2.4842   59.9583 H       1  ZINC000654672208    0.0900
     31 H31       -11.2962   -1.7697   60.3170 H       1  ZINC000654672208    0.0900
     32 H32       -10.6024    0.3401   59.2257 H       1  ZINC000654672208    0.0700
     33 H33        -9.0017   -0.3583   58.8819 H       1  ZINC000654672208    0.0700
     34 H34       -10.6000   -2.1499   57.6871 H       1  ZINC000654672208    0.3900
     35 H35       -11.0476   -2.8858   56.3391 H       1  ZINC000654672208    0.1000
     36 H36       -12.5976   -2.7610   55.4674 H       1  ZINC000654672208    0.0700
     37 H37        -9.8020   -2.5099   54.2644 H       1  ZINC000654672208    0.0700
     38 H38       -10.9514   -3.8458   54.0108 H       1  ZINC000654672208    0.0800
     39 H39       -11.0170   -2.2781   52.1030 H       1  ZINC000654672208    0.0800
     40 H40       -12.5616   -2.2466   52.9868 H       1  ZINC000654672208    0.0800
     41 H41       -11.8889   -0.3216   51.1991 H       1  ZINC000654672208    0.1000
     42 H42       -13.0194    0.4622   52.3297 H       1  ZINC000654672208    0.1000
     43 H43       -11.3833    2.0237   50.9355 H       1  ZINC000654672208    0.1400
     44 H44       -11.5041    2.3285   52.7017 H       1  ZINC000654672208    0.1400
     45 H45        -9.6327    0.2239   54.4184 H       1  ZINC000654672208    0.1400
     46 H46        -9.2418   -1.0778   53.2553 H       1  ZINC000654672208    0.1400
     47 H47       -13.1291   -0.2729   54.4657 H       1  ZINC000654672208    0.0800
     48 H48       -11.8649    0.9357   54.8106 H       1  ZINC000654672208    0.0800
     49 H49       -12.5481   -0.7972   62.3399 H       1  ZINC000654672208    0.0800
     50 H50       -12.2911    0.9635   62.2910 H       1  ZINC000654672208    0.0700
     51 H51       -12.0660   -0.0101   60.8179 H       1  ZINC000654672208    0.0700
     52 H52       -10.5985    0.9446   64.0749 H       1  ZINC000654672208    0.1300
@<TRIPOS>BOND
     1     1     2    1
     2     1    26    1
     3     1    27    1
     4     1    28    1
     5     2    25   ar
     6     2     3   ar
     7     3     4   ar
     8     3    29    1
     9     4     5   ar
    10     5     6    1
    11     5    23   ar
    12     6     7    1
    13     6    30    1
    14     6    31    1
    15     7     8    1
    16     7    32    1
    17     7    33    1
    18     8     9   am
    19     8    34    1
    20     9    10    2
    21     9    11   am
    22    11    22    1
    23    11    12    1
    24    12    13    1
    25    12    35    1
    26    12    36    1
    27    13    14    1
    28    13    37    1
    29    13    38    1
    30    14    15    1
    31    14    39    1
    32    14    40    1
    33    15    21    1
    34    15    16    1
    35    15    22    1
    36    16    17    1
    37    16    41    1
    38    16    42    1
    39    17    18    1
    40    17    43    1
    41    17    44    1
    42    18    19    2
    43    18    20    2
    44    18    21    1
    45    21    45    1
    46    21    46    1
    47    22    47    1
    48    22    48    1
    49    23    24    1
    50    23    25   ar
    51    24    49    1
    52    24    50    1
    53    24    51    1
    54    25    52    1
@<TRIPOS>SUBSTRUCTURE
     1 ZINC000654672208        1 TEMP              0 ****  ****    0 ROOT


##########                                Name:    ZINC001065334255
##########                DOCK_Rotatable_Bonds:                   7
##########                         Heavy_Atoms:                  23
##########                    Molecular_Weight:             346.448
##########                DOCK_Rotatable_Bonds:                   7
##########                       Formal_Charge:        -5.81145e-07
##########                     HBond_Acceptors:                   8
##########                        HBond_Donors:                   1
##########                         Heavy_Atoms:                  23
##########                          Grid_Score:          -30.064539
##########                     Grid_vdw_energy:          -27.475433
##########                      Grid_es_energy:           -2.589106
##########           Internal_energy_repulsive:           18.364149

@<TRIPOS>MOLECULE
ZINC001065334255
 49 50 1 0 0
SMALL
USER_CHARGES


@<TRIPOS>ATOM
      1 C1         -3.2381    4.2980   56.7557 C.3     1  ZINC001065334255   -0.1500
      2 C2         -1.9068    3.5997   56.4715 C.3     1  ZINC001065334255   -0.0800
      3 C3         -1.5930    2.6198   57.6038 C.3     1  ZINC001065334255   -0.1500
      4 C4         -2.0033    2.8366   55.1488 C.3     1  ZINC001065334255   -0.1400
      5 C5         -2.1491    3.8163   54.0131 C.2     1  ZINC001065334255    0.5100
      6 O6         -1.6674    4.9257   54.1036 O.2     1  ZINC001065334255   -0.5300
      7 N7         -2.8148    3.4597   52.8967 N.am    1  ZINC001065334255   -0.7300
      8 C8         -2.9549    4.4116   51.7920 C.3     1  ZINC001065334255    0.1300
      9 C9         -1.6804    4.4016   50.9455 C.3     1  ZINC001065334255    0.0700
     10 H10        -0.8667    3.9563   51.5179 H       1  ZINC001065334255    0.0700
     11 C11        -1.9182    3.5827   49.6716 C.3     1  ZINC001065334255    0.0800
     12 N12        -0.7496    3.7431   48.7919 N.am    1  ZINC001065334255   -0.6100
     13 C13        -0.1275    2.6711   48.2624 C.2     1  ZINC001065334255    0.5400
     14 O14         0.8340    2.8238   47.5391 O.2     1  ZINC001065334255   -0.5200
     15 C15        -0.6266    1.2826   48.5691 C.3     1  ZINC001065334255   -0.1100
     16 H16        -0.7948    1.1749   49.6406 H       1  ZINC001065334255    0.1200
     17 C17         0.3950    0.2372   48.0883 C.3     1  ZINC001065334255   -0.1000
     18 C18        -0.2758   -1.1508   48.0987 C.3     1  ZINC001065334255   -0.5900
     19 S19        -2.0564   -0.8211   47.8408 S.o2    1  ZINC001065334255    2.3900
     20 O20        -2.4437   -1.3014   46.5607 O.2     1  ZINC001065334255   -0.9300
     21 O21        -2.7815   -1.2205   48.9957 O.2     1  ZINC001065334255   -0.9300
     22 C22        -1.9416    1.0081   47.7948 C.3     1  ZINC001065334255   -0.5900
     23 C23        -0.2805    5.1084   48.5069 C.3     1  ZINC001065334255    0.0600
     24 C24        -0.1224    5.8529   49.8376 C.3     1  ZINC001065334255    0.0500
     25 O25        -1.3347    5.7417   50.5872 O.3     1  ZINC001065334255   -0.3700
     26 H26        -3.1694    4.8416   57.6980 H       1  ZINC001065334255    0.0600
     27 H27        -3.4617    4.9962   55.9490 H       1  ZINC001065334255    0.0500
     28 H28        -4.0318    3.5539   56.8227 H       1  ZINC001065334255    0.0600
     29 H29        -1.1132    4.3438   56.4046 H       1  ZINC001065334255    0.0800
     30 H30        -2.3866    1.8756   57.6708 H       1  ZINC001065334255    0.0500
     31 H31        -0.6446    2.1223   57.4013 H       1  ZINC001065334255    0.0700
     32 H32        -1.5242    3.1634   58.5461 H       1  ZINC001065334255    0.0500
     33 H33        -1.0997    2.2445   55.0042 H       1  ZINC001065334255    0.0900
     34 H34        -2.8703    2.1764   55.1727 H       1  ZINC001065334255    0.0900
     35 H35        -3.2011    2.5728   52.8249 H       1  ZINC001065334255    0.4000
     36 H36        -3.8049    4.1263   51.1722 H       1  ZINC001065334255    0.0900
     37 H37        -3.1170    5.4121   52.1929 H       1  ZINC001065334255    0.0800
     38 H38        -2.0423    2.5308   49.9291 H       1  ZINC001065334255    0.1100
     39 H39        -2.8123    3.9449   49.1640 H       1  ZINC001065334255    0.0900
     40 H40         0.7191    0.4799   47.0762 H       1  ZINC001065334255    0.1000
     41 H41         1.2567    0.2329   48.7558 H       1  ZINC001065334255    0.1000
     42 H42         0.1162   -1.7668   47.2894 H       1  ZINC001065334255    0.1500
     43 H43        -0.1169   -1.6408   49.0594 H       1  ZINC001065334255    0.1400
     44 H44        -2.7927    1.4620   48.3026 H       1  ZINC001065334255    0.1400
     45 H45        -1.8669    1.3654   46.7679 H       1  ZINC001065334255    0.1500
     46 H46         0.6799    5.0668   47.9932 H       1  ZINC001065334255    0.1000
     47 H47        -1.0096    5.6241   47.8820 H       1  ZINC001065334255    0.0900
     48 H48         0.6975    5.4134   50.4055 H       1  ZINC001065334255    0.0600
     49 H49         0.0904    6.9042   49.6435 H       1  ZINC001065334255    0.1100
@<TRIPOS>BOND
     1     1     2    1
     2     1    26    1
     3     1    27    1
     4     1    28    1
     5     2     3    1
     6     2     4    1
     7     2    29    1
     8     3    30    1
     9     3    31    1
    10     3    32    1
    11     4     5    1
    12     4    33    1
    13     4    34    1
    14     5     6    2
    15     5     7   am
    16     7     8    1
    17     7    35    1
    18     8     9    1
    19     8    36    1
    20     8    37    1
    21     9    10    1
    22     9    25    1
    23     9    11    1
    24    11    12    1
    25    11    38    1
    26    11    39    1
    27    12    13   am
    28    12    23    1
    29    13    14    2
    30    13    15    1
    31    15    16    1
    32    15    22    1
    33    15    17    1
    34    17    18    1
    35    17    40    1
    36    17    41    1
    37    18    19    1
    38    18    42    1
    39    18    43    1
    40    19    20    2
    41    19    21    2
    42    19    22    1
    43    22    44    1
    44    22    45    1
    45    23    24    1
    46    23    46    1
    47    23    47    1
    48    24    25    1
    49    24    48    1
    50    24    49    1
@<TRIPOS>SUBSTRUCTURE
     1 ZINC001065334255        1 TEMP              0 ****  ****    0 ROOT


##########                                Name:    ZINC000746432885
##########                DOCK_Rotatable_Bonds:                  11
##########                         Heavy_Atoms:                  31
##########                    Molecular_Weight:              419.44
##########                DOCK_Rotatable_Bonds:                  11
##########                       Formal_Charge:           0.0199995
##########                     HBond_Acceptors:                   9
##########                        HBond_Donors:                   2
##########                         Heavy_Atoms:                  31
##########                          Grid_Score:          -30.052530
##########                     Grid_vdw_energy:          -27.648216
##########                      Grid_es_energy:           -2.404315
##########           Internal_energy_repulsive:           20.711178

@<TRIPOS>MOLECULE
ZINC000746432885
 52 54 1 0 0
SMALL
USER_CHARGES


@<TRIPOS>ATOM
      1 C1         -5.0385    5.9283   51.2950 C.3     1  ZINC000746432885    0.0300
      2 O2         -4.6460    6.9439   50.3694 O.3     1  ZINC000746432885   -0.3200
      3 C3         -3.5834    6.6706   49.5676 C.ar    1  ZINC000746432885    0.1300
      4 C4         -3.2879    7.5030   48.4979 C.ar    1  ZINC000746432885   -0.2000
      5 C5         -2.2072    7.2230   47.6842 C.ar    1  ZINC000746432885   -0.0800
      6 C6         -1.4206    6.1139   47.9349 C.ar    1  ZINC000746432885   -0.1400
      7 C7         -1.7130    5.2827   49.0005 C.ar    1  ZINC000746432885   -0.0600
      8 C8         -0.8533    4.0749   49.2712 C.3     1  ZINC000746432885    0.2300
      9 N9         -0.6646    3.9239   50.7162 N.am    1  ZINC000746432885   -0.6900
     10 C10         0.4352    4.4297   51.3087 C.2     1  ZINC000746432885    0.5200
     11 O11         1.2701    5.0089   50.6449 O.2     1  ZINC000746432885   -0.5100
     12 C12         0.6267    4.2773   52.7817 C.2     1  ZINC000746432885    0.5100
     13 O13         1.5243    4.8726   53.3419 O.2     1  ZINC000746432885   -0.5100
     14 N14        -0.1969    3.4789   53.4893 N.am    1  ZINC000746432885   -0.6100
     15 C15        -0.0179    3.3369   54.8754 C.2     1  ZINC000746432885    0.0000
     16 C16        -1.0036    3.2770   55.8082 C.2     1  ZINC000746432885    0.0400
     17 N17        -0.4154    3.1386   57.0179 N.pl3   1  ZINC000746432885   -0.3800
     18 C18        -1.1074    3.0337   58.3048 C.3     1  ZINC000746432885    0.2500
     19 C19        -0.1879    3.4155   59.3891 C.1     1  ZINC000746432885    0.1900
     20 N20         0.5215    3.7102   60.2259 N.1     1  ZINC000746432885   -0.3900
     21 N21         0.9716    3.1126   56.8246 N.2     1  ZINC000746432885   -0.2800
     22 C22         1.2113    3.2254   55.5435 C.2     1  ZINC000746432885    0.0700
     23 C23        -1.5282    2.8446   48.7215 C.ar    1  ZINC000746432885   -0.0500
     24 C24        -2.4492    2.1594   49.4920 C.ar    1  ZINC000746432885   -0.1500
     25 C25        -3.0703    1.0306   48.9904 C.ar    1  ZINC000746432885   -0.0700
     26 C26        -2.7719    0.5846   47.7174 C.ar    1  ZINC000746432885   -0.2000
     27 C27        -1.8480    1.2703   46.9423 C.ar    1  ZINC000746432885    0.1300
     28 O28        -1.5527    0.8336   45.6897 O.3     1  ZINC000746432885   -0.3200
     29 C29        -0.5287    1.5359   44.9825 C.3     1  ZINC000746432885    0.0300
     30 C30        -1.2301    2.4057   47.4460 C.ar    1  ZINC000746432885   -0.1300
     31 C31        -2.7889    5.5618   49.8207 C.ar    1  ZINC000746432885   -0.1300
     32 H32        -4.2104    5.7121   51.9700 H       1  ZINC000746432885    0.0600
     33 H33        -5.8964    6.2741   51.8717 H       1  ZINC000746432885    0.1000
     34 H34        -5.3081    5.0240   50.7494 H       1  ZINC000746432885    0.0600
     35 H35        -3.9024    8.3691   48.3012 H       1  ZINC000746432885    0.1300
     36 H36        -1.9766    7.8708   46.8514 H       1  ZINC000746432885    0.1300
     37 H37        -0.5766    5.8962   47.2973 H       1  ZINC000746432885    0.1200
     38 H38         0.1160    4.2035   48.7896 H       1  ZINC000746432885    0.1200
     39 H39        -1.3312    3.4599   51.2466 H       1  ZINC000746432885    0.4200
     40 H40        -0.9133    3.0024   53.0415 H       1  ZINC000746432885    0.4200
     41 H41        -2.0655    3.3305   55.6180 H       1  ZINC000746432885    0.1900
     42 H42        -1.9702    3.6999   58.3087 H       1  ZINC000746432885    0.1300
     43 H43        -1.4406    2.0069   58.4557 H       1  ZINC000746432885    0.1500
     44 H44         2.1870    3.2373   55.0805 H       1  ZINC000746432885    0.2100
     45 H45        -2.6836    2.5062   50.4876 H       1  ZINC000746432885    0.1200
     46 H46        -3.7892    0.4968   49.5944 H       1  ZINC000746432885    0.1300
     47 H47        -3.2571   -0.2974   47.3262 H       1  ZINC000746432885    0.1300
     48 H48        -0.3928    1.0865   43.9987 H       1  ZINC000746432885    0.1000
     49 H49        -0.8173    2.5807   44.8679 H       1  ZINC000746432885    0.0600
     50 H50         0.4053    1.4762   45.5414 H       1  ZINC000746432885    0.0600
     51 H51        -0.5106    2.9414   46.8445 H       1  ZINC000746432885    0.1400
     52 H52        -3.0170    4.9122   50.6528 H       1  ZINC000746432885    0.1300
@<TRIPOS>BOND
     1     1     2    1
     2     1    32    1
     3     1    33    1
     4     1    34    1
     5     2     3    1
     6     3    31   ar
     7     3     4   ar
     8     4     5   ar
     9     4    35    1
    10     5     6   ar
    11     5    36    1
    12     6     7   ar
    13     6    37    1
    14     7     8    1
    15     7    31   ar
    16     8     9    1
    17     8    23    1
    18     8    38    1
    19     9    10   am
    20     9    39    1
    21    10    11    2
    22    10    12    1
    23    12    13    2
    24    12    14   am
    25    14    15    1
    26    14    40    1
    27    15    22    1
    28    15    16    2
    29    16    17    1
    30    16    41    1
    31    17    18    1
    32    17    21    1
    33    18    19    1
    34    18    42    1
    35    18    43    1
    36    19    20    3
    37    21    22    2
    38    22    44    1
    39    23    30   ar
    40    23    24   ar
    41    24    25   ar
    42    24    45    1
    43    25    26   ar
    44    25    46    1
    45    26    27   ar
    46    26    47    1
    47    27    28    1
    48    27    30   ar
    49    28    29    1
    50    29    48    1
    51    29    49    1
    52    29    50    1
    53    30    51    1
    54    31    52    1
@<TRIPOS>SUBSTRUCTURE
     1 ZINC000746432885        1 TEMP              0 ****  ****    0 ROOT


##########                                Name:    ZINC000444811358
##########                DOCK_Rotatable_Bonds:                  11
##########                         Heavy_Atoms:                  27
##########                    Molecular_Weight:             374.455
##########                DOCK_Rotatable_Bonds:                  11
##########                       Formal_Charge:          0.00999966
##########                     HBond_Acceptors:                   6
##########                        HBond_Donors:                   2
##########                         Heavy_Atoms:                  27
##########                          Grid_Score:          -30.047068
##########                     Grid_vdw_energy:          -28.187426
##########                      Grid_es_energy:           -1.859642
##########           Internal_energy_repulsive:           19.098104

@<TRIPOS>MOLECULE
ZINC000444811358
 54 55 1 0 0
SMALL
USER_CHARGES


@<TRIPOS>ATOM
      1 C1         -8.4665   -0.4369   62.5023 C.3     1  ZINC000444811358   -0.1100
      2 C2         -8.7691   -0.2391   61.0393 C.ar    1  ZINC000444811358   -0.1300
      3 C3         -8.1943    0.8135   60.3522 C.ar    1  ZINC000444811358   -0.0700
      4 C4         -8.4697    0.9981   59.0110 C.ar    1  ZINC000444811358   -0.1500
      5 C5         -9.3248    0.1249   58.3518 C.ar    1  ZINC000444811358    0.1700
      6 N6         -9.6046    0.3100   56.9934 N.am    1  ZINC000444811358   -0.6800
      7 C7        -10.8215    0.7437   56.6090 C.2     1  ZINC000444811358    0.5200
      8 O8        -11.6739    0.9735   57.4406 O.2     1  ZINC000444811358   -0.5000
      9 C9        -11.1228    0.9432   55.1460 C.3     1  ZINC000444811358    0.0200
     10 N10       -11.4389   -0.3525   54.5302 N.3     1  ZINC000444811358   -0.5000
     11 C11       -12.8123   -0.3667   54.0091 C.3     1  ZINC000444811358    0.0200
     12 C12       -13.7736   -0.8022   55.1170 C.3     1  ZINC000444811358    0.1100
     13 H13       -13.2252   -1.3618   55.8746 H       1  ZINC000444811358    0.1200
     14 O14       -14.3668    0.3526   55.7139 O.3     1  ZINC000444811358   -0.5400
     15 C15       -14.8696   -1.6886   54.5218 C.3     1  ZINC000444811358    0.0300
     16 O16       -14.7640   -3.0061   55.0650 O.3     1  ZINC000444811358   -0.3000
     17 C17       -14.7557   -3.1162   56.4195 C.ar    1  ZINC000444811358    0.1300
     18 C18       -15.8622   -2.7183   57.1557 C.ar    1  ZINC000444811358   -0.2100
     19 C19       -15.8516   -2.8317   58.5324 C.ar    1  ZINC000444811358   -0.0800
     20 C20       -14.7392   -3.3409   59.1767 C.ar    1  ZINC000444811358   -0.1600
     21 C21       -13.6350   -3.7378   58.4453 C.ar    1  ZINC000444811358   -0.0800
     22 C22       -13.6430   -3.6321   57.0679 C.ar    1  ZINC000444811358   -0.1500
     23 C23       -10.4720   -0.6837   53.4749 C.3     1  ZINC000444811358    0.0700
     24 C24       -10.5576   -2.1776   53.1554 C.3     1  ZINC000444811358   -0.1400
     25 C25       -10.7927    0.1260   52.2170 C.3     1  ZINC000444811358   -0.1900
     26 C26        -9.9015   -0.9325   59.0427 C.ar    1  ZINC000444811358   -0.1500
     27 C27        -9.6182   -1.1159   60.3842 C.ar    1  ZINC000444811358    0.1200
     28 F28       -10.1783   -2.1441   61.0581 F       1  ZINC000444811358   -0.1300
     29 H29        -7.5914   -1.0778   62.6089 H       1  ZINC000444811358    0.0700
     30 H30        -8.2680    0.5293   62.9662 H       1  ZINC000444811358    0.0700
     31 H31        -9.3214   -0.9053   62.9900 H       1  ZINC000444811358    0.0700
     32 H32        -7.5291    1.4928   60.8645 H       1  ZINC000444811358    0.1400
     33 H33        -8.0204    1.8213   58.4757 H       1  ZINC000444811358    0.1300
     34 H34        -8.9229    0.1263   56.3283 H       1  ZINC000444811358    0.4100
     35 H35       -11.9752    1.6139   55.0387 H       1  ZINC000444811358    0.1300
     36 H36       -10.2539    1.3779   54.6520 H       1  ZINC000444811358    0.0700
     37 H37       -13.0813    0.6325   53.6666 H       1  ZINC000444811358    0.0500
     38 H38       -12.8775   -1.0663   53.1758 H       1  ZINC000444811358    0.1000
     39 H39       -13.8441    1.1600   55.6131 H       1  ZINC000444811358    0.3700
     40 H40       -15.8466   -1.2720   54.7664 H       1  ZINC000444811358    0.0600
     41 H41       -14.7538   -1.7317   53.4388 H       1  ZINC000444811358    0.0700
     42 H42       -16.7311   -2.3198   56.6529 H       1  ZINC000444811358    0.1300
     43 H43       -16.7127   -2.5221   59.1060 H       1  ZINC000444811358    0.1200
     44 H44       -14.7327   -3.4285   60.2531 H       1  ZINC000444811358    0.1200
     45 H45       -12.7672   -4.1350   58.9510 H       1  ZINC000444811358    0.1300
     46 H46       -12.7803   -3.9423   56.4970 H       1  ZINC000444811358    0.1300
     47 H47        -9.4652   -0.4421   53.8157 H       1  ZINC000444811358    0.0900
     48 H48       -11.5193   -2.3953   52.6908 H       1  ZINC000444811358    0.0500
     49 H49        -9.7537   -2.4494   52.4713 H       1  ZINC000444811358    0.0600
     50 H50       -10.4607   -2.7523   54.0765 H       1  ZINC000444811358    0.0700
     51 H51       -10.7318    1.1902   52.4446 H       1  ZINC000444811358    0.0500
     52 H52       -10.0753   -0.1197   51.4341 H       1  ZINC000444811358    0.0700
     53 H53       -11.7994   -0.1155   51.8762 H       1  ZINC000444811358    0.0600
     54 H54       -10.5672   -1.6130   58.5327 H       1  ZINC000444811358    0.1500
@<TRIPOS>BOND
     1     1     2    1
     2     1    29    1
     3     1    30    1
     4     1    31    1
     5     2    27   ar
     6     2     3   ar
     7     3     4   ar
     8     3    32    1
     9     4     5   ar
    10     4    33    1
    11     5     6    1
    12     5    26   ar
    13     6     7   am
    14     6    34    1
    15     7     8    2
    16     7     9    1
    17     9    10    1
    18     9    35    1
    19     9    36    1
    20    10    11    1
    21    10    23    1
    22    11    12    1
    23    11    37    1
    24    11    38    1
    25    12    13    1
    26    12    14    1
    27    12    15    1
    28    14    39    1
    29    15    16    1
    30    15    40    1
    31    15    41    1
    32    16    17    1
    33    17    22   ar
    34    17    18   ar
    35    18    19   ar
    36    18    42    1
    37    19    20   ar
    38    19    43    1
    39    20    21   ar
    40    20    44    1
    41    21    22   ar
    42    21    45    1
    43    22    46    1
    44    23    24    1
    45    23    25    1
    46    23    47    1
    47    24    48    1
    48    24    49    1
    49    24    50    1
    50    25    51    1
    51    25    52    1
    52    25    53    1
    53    26    27   ar
    54    26    54    1
    55    27    28    1
@<TRIPOS>SUBSTRUCTURE
     1 ZINC000444811358        1 TEMP              0 ****  ****    0 ROOT


##########                                Name:    ZINC000074782190
##########                DOCK_Rotatable_Bonds:                   9
##########                         Heavy_Atoms:                  25
##########                    Molecular_Weight:             341.453
##########                DOCK_Rotatable_Bonds:                   9
##########                       Formal_Charge:          -0.0200006
##########                     HBond_Acceptors:                   5
##########                        HBond_Donors:                   1
##########                         Heavy_Atoms:                  25
##########                          Grid_Score:          -30.046104
##########                     Grid_vdw_energy:          -28.623791
##########                      Grid_es_energy:           -1.422314
##########           Internal_energy_repulsive:           24.586746

@<TRIPOS>MOLECULE
ZINC000074782190
 52 53 1 0 0
SMALL
USER_CHARGES


@<TRIPOS>ATOM
      1 C1          2.0437    0.0410   47.9583 C.3     1  ZINC000074782190   -0.1100
      2 C2          0.5825   -0.3129   47.8544 C.ar    1  ZINC000074782190   -0.1200
      3 C3          0.1383   -1.5480   48.2845 C.ar    1  ZINC000074782190   -0.0800
      4 C4         -1.2023   -1.8736   48.1890 C.ar    1  ZINC000074782190   -0.1500
      5 C5         -2.1011   -0.9641   47.6635 C.ar    1  ZINC000074782190   -0.0900
      6 C6         -1.6619    0.2728   47.2324 C.ar    1  ZINC000074782190   -0.2100
      7 C7         -0.3185    0.6038   47.3320 C.ar    1  ZINC000074782190    0.1300
      8 O8          0.1162    1.8199   46.9086 O.3     1  ZINC000074782190   -0.3000
      9 C9         -0.4807    2.9688   47.5134 C.3     1  ZINC000074782190    0.0700
     10 H10        -1.5587    2.9446   47.3540 H       1  ZINC000074782190    0.0800
     11 C11         0.0998    4.2364   46.8834 C.3     1  ZINC000074782190   -0.1800
     12 C12        -0.1871    2.9651   49.0149 C.3     1  ZINC000074782190    0.1400
     13 N13        -1.3070    3.5783   49.7331 N.am    1  ZINC000074782190   -0.7500
     14 C14        -1.1024    4.1562   50.9334 C.2     1  ZINC000074782190    0.7100
     15 O15         0.0116    4.1685   51.4202 O.2     1  ZINC000074782190   -0.5900
     16 N16        -2.1328    4.7203   51.5941 N.am    1  ZINC000074782190   -0.6200
     17 C17        -1.9104    5.3485   52.8988 C.3     1  ZINC000074782190    0.1800
     18 C18        -1.5644    4.2896   53.9137 C.ar    1  ZINC000074782190   -0.1600
     19 C19        -0.2397    3.9960   54.1980 C.ar    1  ZINC000074782190   -0.0500
     20 C20         0.0314    3.0145   55.1394 C.ar    1  ZINC000074782190   -0.1800
     21 C21        -1.0204    2.3665   55.7586 C.ar    1  ZINC000074782190    0.1000
     22 N22        -2.2688    2.6721   55.4632 N.ar    1  ZINC000074782190   -0.4900
     23 C23        -2.5638    3.6030   54.5774 C.ar    1  ZINC000074782190    0.1100
     24 C24        -3.4752    4.7054   51.0075 C.3     1  ZINC000074782190    0.1300
     25 C25        -4.4714    4.1506   52.0278 C.3     1  ZINC000074782190   -0.1800
     26 C26        -3.8794    6.1299   50.6226 C.3     1  ZINC000074782190   -0.1800
     27 H27         2.2370    0.5066   48.9247 H       1  ZINC000074782190    0.0700
     28 H28         2.6443   -0.8638   47.8643 H       1  ZINC000074782190    0.0600
     29 H29         2.3068    0.7362   47.1611 H       1  ZINC000074782190    0.0700
     30 H30         0.8385   -2.2602   48.6954 H       1  ZINC000074782190    0.1300
     31 H31        -1.5476   -2.8401   48.5251 H       1  ZINC000074782190    0.1200
     32 H32        -3.1476   -1.2209   47.5896 H       1  ZINC000074782190    0.1200
     33 H33        -2.3644    0.9828   46.8216 H       1  ZINC000074782190    0.1300
     34 H34         1.1778    4.2605   47.0428 H       1  ZINC000074782190    0.0700
     35 H35        -0.1095    4.2391   45.8136 H       1  ZINC000074782190    0.0700
     36 H36        -0.3555    5.1127   47.3447 H       1  ZINC000074782190    0.0800
     37 H37        -0.0547    1.9385   49.3567 H       1  ZINC000074782190    0.0800
     38 H38         0.7232    3.5327   49.2086 H       1  ZINC000074782190    0.0900
     39 H39        -2.1958    3.5685   49.3447 H       1  ZINC000074782190    0.4100
     40 H40        -1.0897    6.0617   52.8235 H       1  ZINC000074782190    0.0900
     41 H41        -2.8162    5.8685   53.2108 H       1  ZINC000074782190    0.1000
     42 H42         0.5621    4.5188   53.6978 H       1  ZINC000074782190    0.1400
     43 H43         1.0517    2.7596   55.3852 H       1  ZINC000074782190    0.1300
     44 H44        -0.8176    1.6006   56.4926 H       1  ZINC000074782190    0.1600
     45 H45        -3.5984    3.8258   54.3616 H       1  ZINC000074782190    0.1500
     46 H46        -3.4762    4.0746   50.1186 H       1  ZINC000074782190    0.1000
     47 H47        -4.5371    4.8298   52.8778 H       1  ZINC000074782190    0.0600
     48 H48        -5.4525    4.0547   51.5626 H       1  ZINC000074782190    0.0700
     49 H49        -4.1342    3.1721   52.3697 H       1  ZINC000074782190    0.0600
     50 H50        -3.2402    6.4829   49.8133 H       1  ZINC000074782190    0.0700
     51 H51        -4.9187    6.1364   50.2940 H       1  ZINC000074782190    0.0700
     52 H52        -3.7674    6.7854   51.4864 H       1  ZINC000074782190    0.0700
@<TRIPOS>BOND
     1     1     2    1
     2     1    27    1
     3     1    28    1
     4     1    29    1
     5     2     7   ar
     6     2     3   ar
     7     3     4   ar
     8     3    30    1
     9     4     5   ar
    10     4    31    1
    11     5     6   ar
    12     5    32    1
    13     6     7   ar
    14     6    33    1
    15     7     8    1
    16     8     9    1
    17     9    10    1
    18     9    11    1
    19     9    12    1
    20    11    34    1
    21    11    35    1
    22    11    36    1
    23    12    13    1
    24    12    37    1
    25    12    38    1
    26    13    14   am
    27    13    39    1
    28    14    15    2
    29    14    16   am
    30    16    17    1
    31    16    24    1
    32    17    18    1
    33    17    40    1
    34    17    41    1
    35    18    23   ar
    36    18    19   ar
    37    19    20   ar
    38    19    42    1
    39    20    21   ar
    40    20    43    1
    41    21    22   ar
    42    21    44    1
    43    22    23   ar
    44    23    45    1
    45    24    25    1
    46    24    26    1
    47    24    46    1
    48    25    47    1
    49    25    48    1
    50    25    49    1
    51    26    50    1
    52    26    51    1
    53    26    52    1
@<TRIPOS>SUBSTRUCTURE
     1 ZINC000074782190        1 TEMP              0 ****  ****    0 ROOT


##########                                Name:    ZINC001009984555
##########                DOCK_Rotatable_Bonds:                   7
##########                         Heavy_Atoms:                  23
##########                    Molecular_Weight:             338.446
##########                DOCK_Rotatable_Bonds:                   7
##########                       Formal_Charge:           0.0400002
##########                     HBond_Acceptors:                   6
##########                        HBond_Donors:                   1
##########                         Heavy_Atoms:                  23
##########                          Grid_Score:          -30.028862
##########                     Grid_vdw_energy:          -27.633307
##########                      Grid_es_energy:           -2.395556
##########           Internal_energy_repulsive:           15.086220

@<TRIPOS>MOLECULE
ZINC001009984555
 46 47 1 0 0
SMALL
USER_CHARGES


@<TRIPOS>ATOM
      1 C1         -2.0123    5.8838   50.7040 C.3     1  ZINC001009984555   -0.1400
      2 S2         -2.9028    4.3216   50.4651 S.3     1  ZINC001009984555   -0.1800
      3 C3         -1.8077    3.3931   49.3565 C.3     1  ZINC001009984555   -0.1300
      4 C4         -2.4176    2.0475   49.0589 C.2     1  ZINC001009984555    0.5500
      5 O5         -3.1260    1.5075   49.8821 O.2     1  ZINC001009984555   -0.5100
      6 N6         -2.1761    1.4443   47.8782 N.am    1  ZINC001009984555   -0.6100
      7 C7         -1.3316    1.9816   46.7958 C.3     1  ZINC001009984555    0.1000
      8 C8         -0.8755    0.7372   45.9938 C.3     1  ZINC001009984555   -0.1100
      9 H9         -0.0323    0.2466   46.4799 H       1  ZINC001009984555    0.1000
     10 C10        -0.5313    1.1109   44.5506 C.3     1  ZINC001009984555    0.1300
     11 N11        -0.0663    2.4994   44.5033 N.am    1  ZINC001009984555   -0.7300
     12 C12         1.2145    2.7706   44.1831 C.2     1  ZINC001009984555    0.5600
     13 O13         1.9834    1.8632   43.9323 O.2     1  ZINC001009984555   -0.5200
     14 C14         1.6843    4.1718   44.1371 C.ar    1  ZINC001009984555   -0.1200
     15 C15         2.0410    4.7513   42.9187 C.ar    1  ZINC001009984555   -0.0900
     16 C16         2.4788    6.0593   42.8812 C.ar    1  ZINC001009984555   -0.1000
     17 C17         2.5653    6.7971   44.0477 C.ar    1  ZINC001009984555   -0.1200
     18 C18         2.2129    6.2287   45.2616 C.ar    1  ZINC001009984555    0.0900
     19 F19         2.2999    6.9553   46.3972 F       1  ZINC001009984555   -0.1300
     20 C20         1.7672    4.9218   45.3111 C.ar    1  ZINC001009984555   -0.0500
     21 C21         1.3839    4.3039   46.6311 C.3     1  ZINC001009984555   -0.1200
     22 C22        -2.1453   -0.1528   46.0509 C.3     1  ZINC001009984555   -0.1200
     23 C23        -2.7058    0.1386   47.4588 C.3     1  ZINC001009984555    0.1400
     24 H24        -3.7945    0.1799   47.4231 H       1  ZINC001009984555    0.0800
     25 C25        -2.2586   -0.9531   48.4331 C.3     1  ZINC001009984555   -0.1700
     26 H26        -1.8765    6.3756   49.7408 H       1  ZINC001009984555    0.0800
     27 H27        -2.5871    6.5322   51.3652 H       1  ZINC001009984555    0.1100
     28 H28        -1.0382    5.6823   51.1495 H       1  ZINC001009984555    0.0800
     29 H29        -1.6778    3.9467   48.4266 H       1  ZINC001009984555    0.1100
     30 H30        -0.8384    3.2546   49.8354 H       1  ZINC001009984555    0.1100
     31 H31        -1.9106    2.6515   46.1599 H       1  ZINC001009984555    0.0800
     32 H32        -0.4688    2.5026   47.2108 H       1  ZINC001009984555    0.0800
     33 H33         0.2549    0.4517   44.1822 H       1  ZINC001009984555    0.0800
     34 H34        -1.4180    1.0032   43.9260 H       1  ZINC001009984555    0.0800
     35 H35        -0.6802    3.2235   44.7023 H       1  ZINC001009984555    0.4000
     36 H36         1.9749    4.1767   42.0066 H       1  ZINC001009984555    0.1300
     37 H37         2.7550    6.5079   41.9384 H       1  ZINC001009984555    0.1400
     38 H38         2.9094    7.8203   44.0126 H       1  ZINC001009984555    0.1400
     39 H39         0.3042    4.3719   46.7641 H       1  ZINC001009984555    0.0800
     40 H40         1.6863    3.2568   46.6435 H       1  ZINC001009984555    0.1000
     41 H41         1.8839    4.8361   47.4403 H       1  ZINC001009984555    0.0600
     42 H42        -2.8574    0.1414   45.2799 H       1  ZINC001009984555    0.0900
     43 H43        -1.8826   -1.2061   45.9532 H       1  ZINC001009984555    0.0900
     44 H44        -1.1697   -0.9767   48.4773 H       1  ZINC001009984555    0.0600
     45 H45        -2.6580   -0.7409   49.4247 H       1  ZINC001009984555    0.0700
     46 H46        -2.6293   -1.9194   48.0911 H       1  ZINC001009984555    0.0700
@<TRIPOS>BOND
     1     1     2    1
     2     1    26    1
     3     1    27    1
     4     1    28    1
     5     2     3    1
     6     3     4    1
     7     3    29    1
     8     3    30    1
     9     4     5    2
    10     4     6   am
    11     6    23    1
    12     6     7    1
    13     7     8    1
    14     7    31    1
    15     7    32    1
    16     8     9    1
    17     8    10    1
    18     8    22    1
    19    10    11    1
    20    10    33    1
    21    10    34    1
    22    11    12   am
    23    11    35    1
    24    12    13    2
    25    12    14    1
    26    14    20   ar
    27    14    15   ar
    28    15    16   ar
    29    15    36    1
    30    16    17   ar
    31    16    37    1
    32    17    18   ar
    33    17    38    1
    34    18    19    1
    35    18    20   ar
    36    20    21    1
    37    21    39    1
    38    21    40    1
    39    21    41    1
    40    22    23    1
    41    22    42    1
    42    22    43    1
    43    23    24    1
    44    23    25    1
    45    25    44    1
    46    25    45    1
    47    25    46    1
@<TRIPOS>SUBSTRUCTURE
     1 ZINC001009984555        1 TEMP              0 ****  ****    0 ROOT


##########                                Name:    ZINC000550011575
##########                DOCK_Rotatable_Bonds:                   6
##########                         Heavy_Atoms:                  28
##########                    Molecular_Weight:             423.935
##########                DOCK_Rotatable_Bonds:                   6
##########                       Formal_Charge:          -0.0100002
##########                     HBond_Acceptors:                   7
##########                        HBond_Donors:                   0
##########                         Heavy_Atoms:                  28
##########                          Grid_Score:          -30.028053
##########                     Grid_vdw_energy:          -28.791714
##########                      Grid_es_energy:           -1.236341
##########           Internal_energy_repulsive:           35.612789

@<TRIPOS>MOLECULE
ZINC000550011575
 51 53 1 0 0
SMALL
USER_CHARGES


@<TRIPOS>ATOM
      1 C1        -12.6657   -3.4086   58.0195 C.3     1  ZINC000550011575   -0.1400
      2 C2        -11.9858   -2.0669   57.7393 C.3     1  ZINC000550011575   -0.6100
      3 H3        -10.9170   -2.2246   57.5944 H       1  ZINC000550011575    0.1500
      4 C4        -12.5764   -1.4545   56.4954 C.2     1  ZINC000550011575    0.5400
      5 O5        -13.4823   -0.6532   56.5854 O.2     1  ZINC000550011575   -0.5100
      6 N6        -12.0979   -1.7974   55.2830 N.am    1  ZINC000550011575   -0.6000
      7 C7        -11.0048   -2.7667   55.1742 C.3     1  ZINC000550011575    0.0600
      8 C8        -12.6708   -1.2007   54.0739 C.3     1  ZINC000550011575    0.1500
      9 C9        -11.6782   -0.2424   53.4677 C.ar    1  ZINC000550011575   -0.1500
     10 C10       -11.5512    1.0379   53.9781 C.ar    1  ZINC000550011575    0.1400
     11 F11       -12.3170    1.4292   55.0201 F       1  ZINC000550011575   -0.1100
     12 C12       -10.6383    1.9174   53.4204 C.ar    1  ZINC000550011575   -0.1500
     13 C13        -9.8548    1.5166   52.3551 C.ar    1  ZINC000550011575   -0.0700
     14 C14        -9.9817    0.2378   51.8452 C.ar    1  ZINC000550011575   -0.1300
     15 C15       -10.8894   -0.6437   52.4044 C.ar    1  ZINC000550011575    0.0000
     16 Cl16      -11.0474   -2.2495   51.7640 Cl      1  ZINC000550011575   -0.0500
     17 S17       -12.2472   -0.9511   59.1454 S.o2    1  ZINC000550011575    2.4500
     18 O18       -12.2228    0.3883   58.6711 O.2     1  ZINC000550011575   -0.9200
     19 O19       -13.3746   -1.4062   59.8810 O.2     1  ZINC000550011575   -0.9100
     20 C20       -10.7555   -1.2407   60.1360 C.3     1  ZINC000550011575   -0.5300
     21 H21       -10.3609   -2.2314   59.9103 H       1  ZINC000550011575    0.1500
     22 C22       -11.1135   -1.1671   61.6190 C.3     1  ZINC000550011575   -0.1100
     23 C23        -9.8145   -1.1967   62.4328 C.3     1  ZINC000550011575   -0.1100
     24 C24        -9.0784    0.1237   62.2139 C.3     1  ZINC000550011575   -0.0900
     25 C25        -8.9436    0.4168   60.7425 C.ar    1  ZINC000550011575   -0.0600
     26 C26        -7.9940    1.3526   60.3541 C.ar    1  ZINC000550011575   -0.1200
     27 C27        -7.8257    1.6693   59.0217 C.ar    1  ZINC000550011575   -0.1100
     28 C28        -8.6089    1.0511   58.0651 C.ar    1  ZINC000550011575   -0.1100
     29 C29        -9.5513    0.1191   58.4489 C.ar    1  ZINC000550011575   -0.1500
     30 C30        -9.7199   -0.2030   59.7897 C.ar    1  ZINC000550011575   -0.0800
     31 H31       -12.1326   -3.9265   58.8169 H       1  ZINC000550011575    0.0900
     32 H32       -13.6977   -3.2360   58.3250 H       1  ZINC000550011575    0.0900
     33 H33       -12.6512   -4.0189   57.1166 H       1  ZINC000550011575    0.0800
     34 H34       -11.4175   -3.7723   55.0937 H       1  ZINC000550011575    0.0700
     35 H35       -10.4103   -2.5458   54.2877 H       1  ZINC000550011575    0.0800
     36 H36       -10.3732   -2.7030   56.0603 H       1  ZINC000550011575    0.0700
     37 H37       -12.9022   -1.9870   53.3554 H       1  ZINC000550011575    0.1000
     38 H38       -13.5838   -0.6636   54.3313 H       1  ZINC000550011575    0.1100
     39 H39       -10.5389    2.9166   53.8180 H       1  ZINC000550011575    0.1500
     40 H40        -9.1432    2.2028   51.9202 H       1  ZINC000550011575    0.1500
     41 H41        -9.3691   -0.0743   51.0123 H       1  ZINC000550011575    0.1400
     42 H42       -11.6521   -0.2413   61.8210 H       1  ZINC000550011575    0.0800
     43 H43       -11.7354   -2.0206   61.8892 H       1  ZINC000550011575    0.0900
     44 H44       -10.0468   -1.3163   63.4910 H       1  ZINC000550011575    0.0800
     45 H45        -9.1901   -2.0250   62.0977 H       1  ZINC000550011575    0.0700
     46 H46        -9.6359    0.9294   62.6913 H       1  ZINC000550011575    0.0800
     47 H47        -8.0861    0.0602   62.6602 H       1  ZINC000550011575    0.0800
     48 H48        -7.3824    1.8368   61.1010 H       1  ZINC000550011575    0.1300
     49 H49        -7.0849    2.3979   58.7273 H       1  ZINC000550011575    0.1300
     50 H50        -8.4838    1.2968   57.0209 H       1  ZINC000550011575    0.1300
     51 H51       -10.1632   -0.3629   57.7009 H       1  ZINC000550011575    0.1700
@<TRIPOS>BOND
     1     1     2    1
     2     1    31    1
     3     1    32    1
     4     1    33    1
     5     2     3    1
     6     2     4    1
     7     2    17    1
     8     4     5    2
     9     4     6   am
    10     6     7    1
    11     6     8    1
    12     7    34    1
    13     7    35    1
    14     7    36    1
    15     8     9    1
    16     8    37    1
    17     8    38    1
    18     9    15   ar
    19     9    10   ar
    20    10    11    1
    21    10    12   ar
    22    12    13   ar
    23    12    39    1
    24    13    14   ar
    25    13    40    1
    26    14    15   ar
    27    14    41    1
    28    15    16    1
    29    17    18    2
    30    17    19    2
    31    17    20    1
    32    20    21    1
    33    20    30    1
    34    20    22    1
    35    22    23    1
    36    22    42    1
    37    22    43    1
    38    23    24    1
    39    23    44    1
    40    23    45    1
    41    24    25    1
    42    24    46    1
    43    24    47    1
    44    25    30   ar
    45    25    26   ar
    46    26    27   ar
    47    26    48    1
    48    27    28   ar
    49    27    49    1
    50    28    29   ar
    51    28    50    1
    52    29    30   ar
    53    29    51    1
@<TRIPOS>SUBSTRUCTURE
     1 ZINC000550011575        1 TEMP              0 ****  ****    0 ROOT


##########                                Name:    ZINC000425987417
##########                DOCK_Rotatable_Bonds:                   9
##########                         Heavy_Atoms:                  25
##########                    Molecular_Weight:             357.419
##########                DOCK_Rotatable_Bonds:                   9
##########                       Formal_Charge:         -0.00999992
##########                     HBond_Acceptors:                   7
##########                        HBond_Donors:                   1
##########                         Heavy_Atoms:                  25
##########                          Grid_Score:          -30.000650
##########                     Grid_vdw_energy:          -29.447021
##########                      Grid_es_energy:           -0.553628
##########           Internal_energy_repulsive:           16.908331

@<TRIPOS>MOLECULE
ZINC000425987417
 51 52 1 0 0
SMALL
USER_CHARGES


@<TRIPOS>ATOM
      1 C1         -8.4807    0.3884   60.2342 C.3     1  ZINC000425987417   -0.1500
      2 C2         -8.1517    0.2646   61.7233 C.3     1  ZINC000425987417    0.0400
      3 N3         -9.3988    0.2200   62.4983 N.3     1  ZINC000425987417   -0.5300
      4 C4         -9.9081   -1.1543   62.5975 C.3     1  ZINC000425987417    0.0400
      5 C5        -11.4316   -1.1451   62.4571 C.3     1  ZINC000425987417    0.1400
      6 N6        -11.7910   -1.1276   61.0370 N.am    1  ZINC000425987417   -0.7500
      7 C7        -12.8401   -1.8512   60.5984 C.2     1  ZINC000425987417    0.7200
      8 O8        -13.4882   -2.5184   61.3814 O.2     1  ZINC000425987417   -0.5800
      9 N9        -13.1707   -1.8351   59.2919 N.am    1  ZINC000425987417   -0.6200
     10 C10       -14.3107   -2.6142   58.7810 C.3     1  ZINC000425987417    0.1300
     11 C11       -13.7652   -3.6701   57.8208 C.3     1  ZINC000425987417   -0.1000
     12 C12       -12.7920   -3.0584   56.8479 C.ar    1  ZINC000425987417   -0.0600
     13 C13       -12.5362   -3.7509   55.6710 C.ar    1  ZINC000425987417   -0.1200
     14 C14       -11.6479   -3.2511   54.7414 C.ar    1  ZINC000425987417   -0.1100
     15 C15       -11.0041   -2.0516   54.9812 C.ar    1  ZINC000425987417   -0.1200
     16 C16       -11.2588   -1.3599   56.1479 C.ar    1  ZINC000425987417   -0.1100
     17 C17       -12.1567   -1.8589   57.0812 C.ar    1  ZINC000425987417   -0.0900
     18 C18       -12.4129   -1.0357   58.3232 C.3     1  ZINC000425987417    0.1800
     19 H19       -11.4613   -0.7383   58.7638 H       1  ZINC000425987417    0.0900
     20 C20       -13.2137    0.2134   57.9497 C.3     1  ZINC000425987417   -0.1600
     21 C21        -9.2122    0.8098   63.8306 C.3     1  ZINC000425987417    0.0500
     22 C22        -8.2203   -0.0380   64.6294 C.3     1  ZINC000425987417   -0.1600
     23 C23        -7.2178    0.8783   65.3340 C.3     1  ZINC000425987417    0.4500
     24 F24        -6.4683    0.1325   66.2501 F       1  ZINC000425987417   -0.1800
     25 F25        -6.3617    1.4493   64.3863 F       1  ZINC000425987417   -0.1800
     26 F26        -7.9068    1.8909   66.0101 F       1  ZINC000425987417   -0.1900
     27 H27        -9.0084    1.3252   60.0554 H       1  ZINC000425987417    0.0500
     28 H28        -7.5569    0.3756   59.6558 H       1  ZINC000425987417    0.0600
     29 H29        -9.1110   -0.4474   59.9307 H       1  ZINC000425987417    0.0700
     30 H30        -7.5842   -0.6499   61.8952 H       1  ZINC000425987417    0.0800
     31 H31        -7.5594    1.1242   62.0372 H       1  ZINC000425987417    0.0400
     32 H32        -9.4736   -1.7610   61.8029 H       1  ZINC000425987417    0.0500
     33 H33        -9.6348   -1.5740   63.5657 H       1  ZINC000425987417    0.0800
     34 H34       -11.8449   -2.0382   62.9256 H       1  ZINC000425987417    0.0800
     35 H35       -11.8360   -0.2584   62.9452 H       1  ZINC000425987417    0.0700
     36 H36       -11.2739   -0.5953   60.4124 H       1  ZINC000425987417    0.3900
     37 H37       -14.8260   -3.1002   59.6095 H       1  ZINC000425987417    0.1000
     38 H38       -14.9999   -1.9559   58.2523 H       1  ZINC000425987417    0.0700
     39 H39       -13.2593   -4.4478   58.3929 H       1  ZINC000425987417    0.0800
     40 H40       -14.5933   -4.1141   57.2682 H       1  ZINC000425987417    0.0900
     41 H41       -13.0368   -4.6890   55.4824 H       1  ZINC000425987417    0.1200
     42 H42       -11.4556   -3.7957   53.8289 H       1  ZINC000425987417    0.1200
     43 H43       -10.3046   -1.6576   54.2589 H       1  ZINC000425987417    0.1200
     44 H44       -10.7556   -0.4230   56.3361 H       1  ZINC000425987417    0.1200
     45 H45       -14.1647   -0.0835   57.5076 H       1  ZINC000425987417    0.0700
     46 H46       -13.3987    0.8073   58.8448 H       1  ZINC000425987417    0.0600
     47 H47       -12.6481    0.8061   57.2308 H       1  ZINC000425987417    0.0700
     48 H48        -8.8240    1.8232   63.7282 H       1  ZINC000425987417    0.0500
     49 H49       -10.1687    0.8382   64.3526 H       1  ZINC000425987417    0.0900
     50 H50        -8.7600   -0.6253   65.3722 H       1  ZINC000425987417    0.1200
     51 H51        -7.6880   -0.7074   63.9537 H       1  ZINC000425987417    0.1100
@<TRIPOS>BOND
     1     1     2    1
     2     1    27    1
     3     1    28    1
     4     1    29    1
     5     2     3    1
     6     2    30    1
     7     2    31    1
     8     3     4    1
     9     3    21    1
    10     4     5    1
    11     4    32    1
    12     4    33    1
    13     5     6    1
    14     5    34    1
    15     5    35    1
    16     6     7   am
    17     6    36    1
    18     7     8    2
    19     7     9   am
    20     9    18    1
    21     9    10    1
    22    10    11    1
    23    10    37    1
    24    10    38    1
    25    11    12    1
    26    11    39    1
    27    11    40    1
    28    12    17   ar
    29    12    13   ar
    30    13    14   ar
    31    13    41    1
    32    14    15   ar
    33    14    42    1
    34    15    16   ar
    35    15    43    1
    36    16    17   ar
    37    16    44    1
    38    17    18    1
    39    18    19    1
    40    18    20    1
    41    20    45    1
    42    20    46    1
    43    20    47    1
    44    21    22    1
    45    21    48    1
    46    21    49    1
    47    22    23    1
    48    22    50    1
    49    22    51    1
    50    23    24    1
    51    23    25    1
    52    23    26    1
@<TRIPOS>SUBSTRUCTURE
     1 ZINC000425987417        1 TEMP              0 ****  ****    0 ROOT


##########                                Name:    ZINC000995593866
##########                DOCK_Rotatable_Bonds:                   7
##########                         Heavy_Atoms:                  24
##########                    Molecular_Weight:             342.389
##########                DOCK_Rotatable_Bonds:                   7
##########                       Formal_Charge:                0.03
##########                     HBond_Acceptors:                   8
##########                        HBond_Donors:                   1
##########                         Heavy_Atoms:                  24
##########                          Grid_Score:          -29.991644
##########                     Grid_vdw_energy:          -28.347303
##########                      Grid_es_energy:           -1.644341
##########           Internal_energy_repulsive:           11.582094

@<TRIPOS>MOLECULE
ZINC000995593866
 48 50 1 0 0
SMALL
USER_CHARGES


@<TRIPOS>ATOM
      1 C1          1.8397    3.3617   46.5811 C.3     1  ZINC000995593866   -0.1400
      2 C2          1.9170    2.1890   45.6013 C.3     1  ZINC000995593866   -0.0800
      3 C3          3.3662    1.7247   45.4424 C.3     1  ZINC000995593866   -0.1400
      4 C4          1.0281    1.0240   46.0874 C.3     1  ZINC000995593866    0.1200
      5 N5         -0.2571    1.2121   45.3749 N.am    1  ZINC000995593866   -0.6300
      6 C6         -1.5032    1.0357   45.8571 C.2     1  ZINC000995593866    0.5400
      7 O7         -2.4634    1.2333   45.1429 O.2     1  ZINC000995593866   -0.5300
      8 C8         -1.7035    0.5931   47.2836 C.3     1  ZINC000995593866   -0.1300
      9 C9         -1.4046   -0.9029   47.4001 C.3     1  ZINC000995593866   -0.1000
     10 C10        -0.1414   -1.2167   48.2192 C.3     1  ZINC000995593866   -0.1300
     11 C11        -0.9218   -2.3957   48.8241 C.3     1  ZINC000995593866   -0.1400
     12 C12        -2.2035   -1.6061   48.5101 C.3     1  ZINC000995593866   -0.1400
     13 C13         0.1382    1.6378   44.0121 C.3     1  ZINC000995593866    0.1100
     14 C14         1.3303    2.5937   44.2330 C.3     1  ZINC000995593866    0.0800
     15 H15         0.9870    3.6279   44.2588 H       1  ZINC000995593866    0.0700
     16 N16         2.3313    2.4152   43.1728 N.3     1  ZINC000995593866   -0.6800
     17 C17         1.7777    2.7741   41.8603 C.3     1  ZINC000995593866    0.1500
     18 C18         2.5911    2.1167   40.7753 C.2     1  ZINC000995593866    0.1900
     19 N19         2.3772    0.9365   40.2453 N.2     1  ZINC000995593866   -0.4300
     20 C20         3.3451    0.7715   39.3261 C.2     1  ZINC000995593866    0.0900
     21 C21         3.5365   -0.4312   38.4386 C.3     1  ZINC000995593866    0.3800
     22 F22         4.1213   -0.0320   37.2320 F       1  ZINC000995593866   -0.1800
     23 F23         4.3706   -1.3546   39.0780 F       1  ZINC000995593866   -0.1700
     24 N24         4.0845    1.8400   39.3436 N.2     1  ZINC000995593866   -0.3400
     25 O25         3.6648    2.6276   40.1651 O.3     1  ZINC000995593866    0.1000
     26 H26         0.7987    3.6563   46.7137 H       1  ZINC000995593866    0.0600
     27 H27         2.2575    3.0607   47.5417 H       1  ZINC000995593866    0.0600
     28 H28         2.4080    4.2036   46.1856 H       1  ZINC000995593866    0.0600
     29 H29         3.7579    1.4179   46.4122 H       1  ZINC000995593866    0.0700
     30 H30         3.4041    0.8819   44.7521 H       1  ZINC000995593866    0.0700
     31 H31         3.9691    2.5435   45.0496 H       1  ZINC000995593866    0.0600
     32 H32         1.4752    0.0670   45.8187 H       1  ZINC000995593866    0.0800
     33 H33         0.8776    1.0850   47.1653 H       1  ZINC000995593866    0.0900
     34 H34        -1.0298    1.1500   47.9348 H       1  ZINC000995593866    0.0900
     35 H35        -2.7350    0.7817   47.5813 H       1  ZINC000995593866    0.0900
     36 H36        -1.4436   -1.4183   46.4406 H       1  ZINC000995593866    0.1000
     37 H37         0.7091   -1.5227   47.6100 H       1  ZINC000995593866    0.0700
     38 H38         0.1123   -0.4432   48.9441 H       1  ZINC000995593866    0.0800
     39 H39        -0.8277   -3.3199   48.2541 H       1  ZINC000995593866    0.0800
     40 H40        -0.7451   -2.5350   49.8906 H       1  ZINC000995593866    0.0700
     41 H41        -2.5136   -0.9391   49.3145 H       1  ZINC000995593866    0.0800
     42 H42        -3.0179   -2.2266   48.1358 H       1  ZINC000995593866    0.0700
     43 H43         0.4464    0.7766   43.4193 H       1  ZINC000995593866    0.0900
     44 H44        -0.6837    2.1618   43.5242 H       1  ZINC000995593866    0.0800
     45 H45         3.1662    2.9460   43.3706 H       1  ZINC000995593866    0.3600
     46 H46         0.7443    2.4337   41.7964 H       1  ZINC000995593866    0.1200
     47 H47         1.8123    3.8563   41.7351 H       1  ZINC000995593866    0.0800
     48 H48         2.5696   -0.8928   38.2385 H       1  ZINC000995593866    0.1500
@<TRIPOS>BOND
     1     1     2    1
     2     1    26    1
     3     1    27    1
     4     1    28    1
     5     2    14    1
     6     2     3    1
     7     2     4    1
     8     3    29    1
     9     3    30    1
    10     3    31    1
    11     4     5    1
    12     4    32    1
    13     4    33    1
    14     5     6   am
    15     5    13    1
    16     6     7    2
    17     6     8    1
    18     8     9    1
    19     8    34    1
    20     8    35    1
    21     9    12    1
    22     9    10    1
    23     9    36    1
    24    10    11    1
    25    10    37    1
    26    10    38    1
    27    11    12    1
    28    11    39    1
    29    11    40    1
    30    12    41    1
    31    12    42    1
    32    13    14    1
    33    13    43    1
    34    13    44    1
    35    14    15    1
    36    14    16    1
    37    16    17    1
    38    16    45    1
    39    17    18    1
    40    17    46    1
    41    17    47    1
    42    18    25    1
    43    18    19    2
    44    19    20    1
    45    20    21    1
    46    20    24    2
    47    21    22    1
    48    21    23    1
    49    21    48    1
    50    24    25    1
@<TRIPOS>SUBSTRUCTURE
     1 ZINC000995593866        1 TEMP              0 ****  ****    0 ROOT


##########                                Name:    ZINC000279593480
##########                DOCK_Rotatable_Bonds:                   9
##########                         Heavy_Atoms:                  23
##########                    Molecular_Weight:              340.85
##########                DOCK_Rotatable_Bonds:                   9
##########                       Formal_Charge:          -0.0500002
##########                     HBond_Acceptors:                   6
##########                        HBond_Donors:                   3
##########                         Heavy_Atoms:                  23
##########                          Grid_Score:          -29.989595
##########                     Grid_vdw_energy:          -29.024590
##########                      Grid_es_energy:           -0.965007
##########           Internal_energy_repulsive:           15.825327

@<TRIPOS>MOLECULE
ZINC000279593480
 48 49 1 0 0
SMALL
USER_CHARGES


@<TRIPOS>ATOM
      1 C1         -1.6258    4.8507   52.9946 C.3     1  ZINC000279593480   -0.1400
      2 C2         -2.4489    3.6095   52.6441 C.3     1  ZINC000279593480   -0.1400
      3 C3         -3.4007    3.9373   51.4919 C.3     1  ZINC000279593480    0.1700
      4 H4         -3.1285    4.8996   51.0583 H       1  ZINC000279593480    0.0900
      5 C5         -4.8356    4.0028   52.0187 C.3     1  ZINC000279593480   -0.0900
      6 C6         -5.0290    5.2819   52.7918 C.ar    1  ZINC000279593480   -0.0800
      7 C7         -5.4664    6.4217   52.1432 C.ar    1  ZINC000279593480   -0.1000
      8 C8         -5.6440    7.5951   52.8517 C.ar    1  ZINC000279593480   -0.1100
      9 C9         -5.3840    7.6288   54.2101 C.ar    1  ZINC000279593480   -0.0400
     10 Cl10       -5.6073    9.1021   55.1008 Cl      1  ZINC000279593480   -0.0700
     11 C11        -4.9462    6.4878   54.8586 C.ar    1  ZINC000279593480   -0.1100
     12 C12        -4.7744    5.3135   54.1502 C.ar    1  ZINC000279593480   -0.1000
     13 N13        -3.3039    2.8950   50.4669 N.am    1  ZINC000279593480   -0.7400
     14 C14        -2.2557    2.8781   49.6198 C.2     1  ZINC000279593480    0.7100
     15 O15        -1.3896    3.7271   49.7074 O.2     1  ZINC000279593480   -0.5800
     16 N16        -2.1674    1.9202   48.6758 N.am    1  ZINC000279593480   -0.7500
     17 C17        -1.0272    1.9009   47.7563 C.3     1  ZINC000279593480    0.1200
     18 C18        -1.0037    0.5705   47.0009 C.3     1  ZINC000279593480    0.0900
     19 O19         0.1011    0.5298   46.0954 O.3     1  ZINC000279593480   -0.5400
     20 C20        -0.9396   -0.6134   47.9915 C.3     1  ZINC000279593480   -0.1900
     21 C21        -2.2374   -1.4046   47.7154 C.3     1  ZINC000279593480    0.0500
     22 O22        -2.5982   -1.0602   46.3600 O.3     1  ZINC000279593480   -0.3600
     23 C23        -2.3327    0.3547   46.2434 C.3     1  ZINC000279593480    0.0900
     24 H24        -3.1326    0.9306   46.7089 H       1  ZINC000279593480    0.0800
     25 C25        -2.1803    0.7486   44.7728 C.3     1  ZINC000279593480   -0.1400
     26 H26        -2.2948    5.6575   53.2942 H       1  ZINC000279593480    0.0600
     27 H27        -0.9478    4.6172   53.8154 H       1  ZINC000279593480    0.0400
     28 H28        -1.0487    5.1618   52.1238 H       1  ZINC000279593480    0.0600
     29 H29        -1.7800    2.8027   52.3443 H       1  ZINC000279593480    0.0600
     30 H30        -3.0261    3.2984   53.5148 H       1  ZINC000279593480    0.0700
     31 H31        -5.5320    3.9760   51.1806 H       1  ZINC000279593480    0.0800
     32 H32        -5.0216    3.1511   52.6730 H       1  ZINC000279593480    0.0900
     33 H33        -5.6691    6.3953   51.0827 H       1  ZINC000279593480    0.1300
     34 H34        -5.9854    8.4857   52.3449 H       1  ZINC000279593480    0.1300
     35 H35        -4.7428    6.5135   55.9189 H       1  ZINC000279593480    0.1300
     36 H36        -4.4331    4.4225   54.6563 H       1  ZINC000279593480    0.1300
     37 H37        -3.9942    2.2171   50.3978 H       1  ZINC000279593480    0.3900
     38 H38        -2.8590    1.2437   48.6052 H       1  ZINC000279593480    0.3900
     39 H39        -1.1203    2.7212   47.0447 H       1  ZINC000279593480    0.0800
     40 H40        -0.1022    2.0138   48.3220 H       1  ZINC000279593480    0.0800
     41 H41         0.2522    1.3592   45.6218 H       1  ZINC000279593480    0.3700
     42 H42        -0.0651   -1.2323   47.7910 H       1  ZINC000279593480    0.0900
     43 H43        -0.9247   -0.2511   49.0194 H       1  ZINC000279593480    0.0900
     44 H44        -2.0538   -2.4758   47.7986 H       1  ZINC000279593480    0.1000
     45 H45        -3.0227   -1.0986   48.4065 H       1  ZINC000279593480    0.0600
     46 H46        -3.1089    0.5384   44.2422 H       1  ZINC000279593480    0.0600
     47 H47        -1.9549    1.8128   44.7032 H       1  ZINC000279593480    0.0700
     48 H48        -1.3684    0.1753   44.3253 H       1  ZINC000279593480    0.0700
@<TRIPOS>BOND
     1     1     2    1
     2     1    26    1
     3     1    27    1
     4     1    28    1
     5     2     3    1
     6     2    29    1
     7     2    30    1
     8     3     4    1
     9     3     5    1
    10     3    13    1
    11     5     6    1
    12     5    31    1
    13     5    32    1
    14     6    12   ar
    15     6     7   ar
    16     7     8   ar
    17     7    33    1
    18     8     9   ar
    19     8    34    1
    20     9    10    1
    21     9    11   ar
    22    11    12   ar
    23    11    35    1
    24    12    36    1
    25    13    14   am
    26    13    37    1
    27    14    15    2
    28    14    16   am
    29    16    17    1
    30    16    38    1
    31    17    18    1
    32    17    39    1
    33    17    40    1
    34    18    23    1
    35    18    19    1
    36    18    20    1
    37    19    41    1
    38    20    21    1
    39    20    42    1
    40    20    43    1
    41    21    22    1
    42    21    44    1
    43    21    45    1
    44    22    23    1
    45    23    24    1
    46    23    25    1
    47    25    46    1
    48    25    47    1
    49    25    48    1
@<TRIPOS>SUBSTRUCTURE
     1 ZINC000279593480        1 TEMP              0 ****  ****    0 ROOT


##########                                Name:    ZINC001039825450
##########                DOCK_Rotatable_Bonds:                   8
##########                         Heavy_Atoms:                  24
##########                    Molecular_Weight:             337.339
##########                DOCK_Rotatable_Bonds:                   8
##########                       Formal_Charge:           0.0100001
##########                     HBond_Acceptors:                  11
##########                        HBond_Donors:                   4
##########                         Heavy_Atoms:                  24
##########                          Grid_Score:          -29.987755
##########                     Grid_vdw_energy:          -29.396793
##########                      Grid_es_energy:           -0.590962
##########           Internal_energy_repulsive:            7.694862

@<TRIPOS>MOLECULE
ZINC001039825450
 43 45 1 0 0
SMALL
USER_CHARGES


@<TRIPOS>ATOM
      1 O1         -0.0896    6.5382   46.6685 O.2     1  ZINC001039825450   -0.5100
      2 C2          0.7165    5.8162   47.2160 C.2     1  ZINC001039825450    0.5000
      3 C3          2.0557    5.5591   46.5744 C.3     1  ZINC001039825450    0.1300
      4 N4          1.9205    5.6286   45.1173 N.pl3   1  ZINC001039825450   -0.1500
      5 N5          1.5720    4.6431   44.3681 N.2     1  ZINC001039825450   -0.2800
      6 C6          1.5509    5.0500   43.1190 C.2     1  ZINC001039825450   -0.0200
      7 C7          1.9218    6.3962   43.1488 C.2     1  ZINC001039825450   -0.0200
      8 N8          2.1287    6.6847   44.4137 N.2     1  ZINC001039825450   -0.2800
      9 N9          0.4169    5.2481   48.4009 N.am    1  ZINC001039825450   -0.7300
     10 C10        -0.8849    5.4980   49.0246 C.3     1  ZINC001039825450    0.1000
     11 C11        -1.2658    4.3061   49.9050 C.3     1  ZINC001039825450    0.1100
     12 O12        -0.4569    4.2708   51.0825 O.3     1  ZINC001039825450   -0.5400
     13 C13        -2.7729    4.3532   50.2708 C.3     1  ZINC001039825450   -0.1600
     14 C14        -3.0807    2.8547   50.5147 C.3     1  ZINC001039825450    0.1000
     15 N15        -2.2776    2.1359   49.5087 N.am    1  ZINC001039825450   -0.6100
     16 C16        -2.5409    0.9052   49.0268 C.2     1  ZINC001039825450    0.5200
     17 O17        -3.5113    0.2941   49.4216 O.2     1  ZINC001039825450   -0.5100
     18 C18        -1.6295    0.2882   47.9974 C.3     1  ZINC001039825450    0.1100
     19 H19        -1.1796    1.0609   47.3740 H       1  ZINC001039825450    0.1200
     20 C20        -2.4010   -0.7254   47.1300 C.3     1  ZINC001039825450    0.1100
     21 N21        -1.7149   -2.0009   47.3842 N.am    1  ZINC001039825450   -0.7400
     22 C22        -0.7115   -1.7965   48.2477 C.2     1  ZINC001039825450    0.7100
     23 O23         0.0231   -2.6854   48.6330 O.2     1  ZINC001039825450   -0.5800
     24 N24        -0.5884   -0.5210   48.6484 N.am    1  ZINC001039825450   -0.7200
     25 C25        -1.1423    2.9844   49.1180 C.3     1  ZINC001039825450    0.1200
     26 H26         2.7695    6.3118   46.9093 H       1  ZINC001039825450    0.1400
     27 H27         2.4111    4.5689   46.8595 H       1  ZINC001039825450    0.1400
     28 H28         1.2988    4.4636   42.2478 H       1  ZINC001039825450    0.2000
     29 H29         2.0152    7.0643   42.3053 H       1  ZINC001039825450    0.2000
     30 H30         1.0632    4.6738   48.8406 H       1  ZINC001039825450    0.4000
     31 H31        -0.8279    6.3981   49.6366 H       1  ZINC001039825450    0.0900
     32 H32        -1.6393    5.6328   48.2495 H       1  ZINC001039825450    0.0900
     33 H33        -0.7109    4.9190   51.7537 H       1  ZINC001039825450    0.3800
     34 H34        -2.9371    4.9381   51.1757 H       1  ZINC001039825450    0.0900
     35 H35        -3.3639    4.7437   49.4424 H       1  ZINC001039825450    0.0900
     36 H36        -2.7776    2.5639   51.5204 H       1  ZINC001039825450    0.0800
     37 H37        -4.1420    2.6562   50.3650 H       1  ZINC001039825450    0.0800
     38 H38        -3.4433   -0.7823   47.4439 H       1  ZINC001039825450    0.0900
     39 H39        -2.3320   -0.4573   46.0757 H       1  ZINC001039825450    0.1000
     40 H40        -1.9513   -2.8547   46.9893 H       1  ZINC001039825450    0.4400
     41 H41         0.0790   -0.1887   49.2689 H       1  ZINC001039825450    0.4400
     42 H42        -1.1810    3.1854   48.0474 H       1  ZINC001039825450    0.0900
     43 H43        -0.2049    2.4887   49.3706 H       1  ZINC001039825450    0.0900
@<TRIPOS>BOND
     1     1     2    2
     2     2     3    1
     3     2     9   am
     4     3     4    1
     5     3    26    1
     6     3    27    1
     7     4     8    1
     8     4     5    1
     9     5     6    2
    10     6     7    1
    11     6    28    1
    12     7     8    2
    13     7    29    1
    14     9    10    1
    15     9    30    1
    16    10    11    1
    17    10    31    1
    18    10    32    1
    19    11    25    1
    20    11    12    1
    21    11    13    1
    22    12    33    1
    23    13    14    1
    24    13    34    1
    25    13    35    1
    26    14    15    1
    27    14    36    1
    28    14    37    1
    29    15    16   am
    30    15    25    1
    31    16    17    2
    32    16    18    1
    33    18    19    1
    34    18    24    1
    35    18    20    1
    36    20    21    1
    37    20    38    1
    38    20    39    1
    39    21    22   am
    40    21    40    1
    41    22    23    2
    42    22    24   am
    43    24    41    1
    44    25    42    1
    45    25    43    1
@<TRIPOS>SUBSTRUCTURE
     1 ZINC001039825450        1 TEMP              0 ****  ****    0 ROOT


##########                                Name:    ZINC000842947763
##########                DOCK_Rotatable_Bonds:                   7
##########                         Heavy_Atoms:                  24
##########                    Molecular_Weight:             365.373
##########                DOCK_Rotatable_Bonds:                   7
##########                       Formal_Charge:          0.00999997
##########                     HBond_Acceptors:                   9
##########                        HBond_Donors:                   0
##########                         Heavy_Atoms:                  24
##########                          Grid_Score:          -29.983728
##########                     Grid_vdw_energy:          -29.543503
##########                      Grid_es_energy:           -0.440226
##########           Internal_energy_repulsive:           30.327454

@<TRIPOS>MOLECULE
ZINC000842947763
 42 43 1 0 0
SMALL
USER_CHARGES


@<TRIPOS>ATOM
      1 C1         -2.4705    5.3525   55.4512 C.3     1  ZINC000842947763   -0.1600
      2 C2         -3.0831    4.3270   54.4953 C.3     1  ZINC000842947763   -0.1000
      3 H3         -2.2961    3.6881   54.0947 H       1  ZINC000842947763    0.1000
      4 C4         -3.7829    5.0554   53.3460 C.3     1  ZINC000842947763    0.0800
      5 O5         -2.8945    5.1162   52.1992 O.3     1  ZINC000842947763   -0.3500
      6 C6         -3.4376    4.8694   50.9908 C.2     1  ZINC000842947763    0.5200
      7 O7         -4.3180    5.5888   50.5620 O.2     1  ZINC000842947763   -0.5100
      8 C8         -2.9639    3.7266   50.1896 C.ar    1  ZINC000842947763   -0.1600
      9 C9         -3.5285    2.4596   50.3672 C.ar    1  ZINC000842947763   -0.0200
     10 C10        -3.0827    1.3988   49.6170 C.ar    1  ZINC000842947763   -0.1700
     11 C11        -2.0639    1.5778   48.6733 C.ar    1  ZINC000842947763    0.2000
     12 C12        -1.5091    2.8410   48.5041 C.ar    1  ZINC000842947763   -0.1500
     13 C13        -1.9508    3.9026   49.2424 C.ar    1  ZINC000842947763   -0.0100
     14 C14        -0.4426    2.7558   47.4346 C.3     1  ZINC000842947763   -0.0800
     15 C15        -0.4486    1.2801   47.0035 C.3     1  ZINC000842947763    0.1100
     16 N16        -1.4808    0.6437   47.8257 N.am    1  ZINC000842947763   -0.9400
     17 S17        -1.8929   -0.9586   47.7555 S.o2    1  ZINC000842947763    2.6100
     18 C18        -0.3625   -1.8384   48.1731 C.3     1  ZINC000842947763   -0.6700
     19 O19        -2.8571   -1.1181   48.7871 O.2     1  ZINC000842947763   -0.9300
     20 O20        -2.2353   -1.1730   46.3932 O.2     1  ZINC000842947763   -0.9400
     21 C21        -4.1008    3.4698   55.2505 C.3     1  ZINC000842947763   -0.1600
     22 C22        -3.3652    2.5290   56.2069 C.3     1  ZINC000842947763    0.4600
     23 F23        -3.1847    3.1649   57.4398 F       1  ZINC000842947763   -0.1800
     24 F24        -4.1200    1.3651   56.3886 F       1  ZINC000842947763   -0.1800
     25 F25        -2.1183    2.1965   55.6668 F       1  ZINC000842947763   -0.1800
     26 H26        -1.8555    4.8384   56.1899 H       1  ZINC000842947763    0.0700
     27 H27        -1.8530    6.0515   54.8871 H       1  ZINC000842947763    0.0700
     28 H28        -3.2667    5.8980   55.9577 H       1  ZINC000842947763    0.0600
     29 H29        -4.6910    4.5172   53.0740 H       1  ZINC000842947763    0.0800
     30 H30        -4.0403    6.0670   53.6603 H       1  ZINC000842947763    0.0800
     31 H31        -4.3142    2.3152   51.0941 H       1  ZINC000842947763    0.1500
     32 H32        -3.5204    0.4212   49.7560 H       1  ZINC000842947763    0.1500
     33 H33        -1.5104    4.8784   49.0996 H       1  ZINC000842947763    0.1400
     34 H34        -0.6960    3.3995   46.5922 H       1  ZINC000842947763    0.1000
     35 H35         0.5300    3.0288   47.8442 H       1  ZINC000842947763    0.1000
     36 H36        -0.7020    1.1959   45.9467 H       1  ZINC000842947763    0.1000
     37 H37         0.5229    0.8255   47.1976 H       1  ZINC000842947763    0.0900
     38 H38        -0.0358   -1.5455   49.1710 H       1  ZINC000842947763    0.1300
     39 H39        -0.5435   -2.9130   48.1509 H       1  ZINC000842947763    0.1400
     40 H40         0.4115   -1.5852   47.4486 H       1  ZINC000842947763    0.1300
     41 H41        -4.7692    4.1161   55.8194 H       1  ZINC000842947763    0.1200
     42 H42        -4.6813    2.8831   54.5386 H       1  ZINC000842947763    0.1100
@<TRIPOS>BOND
     1     1     2    1
     2     1    26    1
     3     1    27    1
     4     1    28    1
     5     2     3    1
     6     2     4    1
     7     2    21    1
     8     4     5    1
     9     4    29    1
    10     4    30    1
    11     5     6    1
    12     6     7    2
    13     6     8    1
    14     8    13   ar
    15     8     9   ar
    16     9    10   ar
    17     9    31    1
    18    10    11   ar
    19    10    32    1
    20    11    16    1
    21    11    12   ar
    22    12    13   ar
    23    12    14    1
    24    13    33    1
    25    14    15    1
    26    14    34    1
    27    14    35    1
    28    15    16    1
    29    15    36    1
    30    15    37    1
    31    16    17   am
    32    17    18    1
    33    17    19    2
    34    17    20    2
    35    18    38    1
    36    18    39    1
    37    18    40    1
    38    21    22    1
    39    21    41    1
    40    21    42    1
    41    22    23    1
    42    22    24    1
    43    22    25    1
@<TRIPOS>SUBSTRUCTURE
     1 ZINC000842947763        1 TEMP              0 ****  ****    0 ROOT


##########                                Name:    ZINC000859202493
##########                DOCK_Rotatable_Bonds:                  11
##########                         Heavy_Atoms:                  25
##########                    Molecular_Weight:             382.404
##########                DOCK_Rotatable_Bonds:                  11
##########                       Formal_Charge:          -0.0200009
##########                     HBond_Acceptors:                  10
##########                        HBond_Donors:                   3
##########                         Heavy_Atoms:                  25
##########                          Grid_Score:          -29.976526
##########                     Grid_vdw_energy:          -29.155500
##########                      Grid_es_energy:           -0.821026
##########           Internal_energy_repulsive:           15.497166

@<TRIPOS>MOLECULE
ZINC000859202493
 46 46 1 0 0
SMALL
USER_CHARGES


@<TRIPOS>ATOM
      1 C1          2.0373    3.7535   45.1272 C.3     1  ZINC000859202493   -0.1500
      2 C2          0.5336    3.4969   45.0090 C.3     1  ZINC000859202493   -0.1200
      3 C3          0.2600    1.9975   45.1433 C.3     1  ZINC000859202493   -0.1000
      4 H4          0.7257    1.6235   46.0550 H       1  ZINC000859202493    0.0700
      5 C5          0.8425    1.2625   43.9345 C.3     1  ZINC000859202493   -0.1600
      6 C6         -1.2498    1.7583   45.2068 C.3     1  ZINC000859202493   -0.1200
      7 C7         -1.5201    0.3241   45.6662 C.3     1  ZINC000859202493    0.1600
      8 H8         -0.6023   -0.1091   46.0636 H       1  ZINC000859202493    0.1000
      9 C9         -2.0046   -0.5092   44.4780 C.3     1  ZINC000859202493    0.0500
     10 O10        -2.5247   -1.7539   44.9497 O.3     1  ZINC000859202493   -0.5700
     11 N11        -2.5485    0.3312   46.7094 N.am    1  ZINC000859202493   -1.1000
     12 S12        -2.1370    0.0049   48.2800 S.o2    1  ZINC000859202493    2.6900
     13 O13        -3.3040    0.2367   49.0570 O.2     1  ZINC000859202493   -0.9500
     14 O14        -1.4478   -1.2376   48.2644 O.2     1  ZINC000859202493   -0.9500
     15 C15        -0.9607    1.2202   48.7742 C.ar    1  ZINC000859202493   -0.6600
     16 C16         0.3868    1.0093   48.5475 C.ar    1  ZINC000859202493   -0.0300
     17 C17         1.3132    1.9605   48.9343 C.ar    1  ZINC000859202493   -0.1100
     18 C18         0.8947    3.1247   49.5480 C.ar    1  ZINC000859202493   -0.0600
     19 C19        -0.4583    3.3397   49.7768 C.ar    1  ZINC000859202493    0.1200
     20 N20        -0.8856    4.5184   50.3980 N.am    1  ZINC000859202493   -0.6500
     21 C21        -0.9357    4.5914   51.7429 C.2     1  ZINC000859202493    0.4800
     22 O22        -0.6104    3.6354   52.4147 O.2     1  ZINC000859202493   -0.4500
     23 C23        -1.3960    5.8609   52.4119 C.3     1  ZINC000859202493    0.4600
     24 F24        -0.9914    6.9625   51.6503 F       1  ZINC000859202493   -0.1500
     25 F25        -2.7910    5.8535   52.5167 F       1  ZINC000859202493   -0.1600
     26 F26        -0.8328    5.9453   53.6897 F       1  ZINC000859202493   -0.1600
     27 C27        -1.3863    2.3851   49.3825 C.ar    1  ZINC000859202493   -0.0300
     28 H28         2.2322    4.8216   45.0315 H       1  ZINC000859202493    0.0500
     29 H29         2.3901    3.4053   46.0980 H       1  ZINC000859202493    0.0500
     30 H30         2.5608    3.2163   44.3363 H       1  ZINC000859202493    0.0600
     31 H31         0.0101    4.0340   45.7999 H       1  ZINC000859202493    0.0600
     32 H32         0.1808    3.8450   44.0383 H       1  ZINC000859202493    0.0600
     33 H33         0.6475    0.1943   44.0302 H       1  ZINC000859202493    0.0500
     34 H34         0.3766    1.6366   43.0228 H       1  ZINC000859202493    0.0600
     35 H35         1.9180    1.4329   43.8893 H       1  ZINC000859202493    0.0600
     36 H36        -1.6990    2.4567   45.9129 H       1  ZINC000859202493    0.0800
     37 H37        -1.6838    1.9112   44.2186 H       1  ZINC000859202493    0.0800
     38 H38        -2.7870    0.0340   43.9481 H       1  ZINC000859202493    0.0600
     39 H39        -1.1707   -0.6969   43.8017 H       1  ZINC000859202493    0.0600
     40 H40        -3.3065   -1.6657   45.5118 H       1  ZINC000859202493    0.3800
     41 H41        -3.4705    0.5270   46.4804 H       1  ZINC000859202493    0.4200
     42 H42         0.7166    0.0998   48.0677 H       1  ZINC000859202493    0.1500
     43 H43         2.3652    1.7926   48.7565 H       1  ZINC000859202493    0.1400
     44 H44         1.6187    3.8669   49.8502 H       1  ZINC000859202493    0.1400
     45 H45        -1.1457    5.2830   49.8607 H       1  ZINC000859202493    0.4200
     46 H46        -2.4391    2.5493   49.5590 H       1  ZINC000859202493    0.1500
@<TRIPOS>BOND
     1     1     2    1
     2     1    28    1
     3     1    29    1
     4     1    30    1
     5     2     3    1
     6     2    31    1
     7     2    32    1
     8     3     4    1
     9     3     5    1
    10     3     6    1
    11     5    33    1
    12     5    34    1
    13     5    35    1
    14     6     7    1
    15     6    36    1
    16     6    37    1
    17     7     8    1
    18     7     9    1
    19     7    11    1
    20     9    10    1
    21     9    38    1
    22     9    39    1
    23    10    40    1
    24    11    12   am
    25    11    41    1
    26    12    13    2
    27    12    14    2
    28    12    15    1
    29    15    27   ar
    30    15    16   ar
    31    16    17   ar
    32    16    42    1
    33    17    18   ar
    34    17    43    1
    35    18    19   ar
    36    18    44    1
    37    19    20    1
    38    19    27   ar
    39    20    21   am
    40    20    45    1
    41    21    22    2
    42    21    23    1
    43    23    24    1
    44    23    25    1
    45    23    26    1
    46    27    46    1
@<TRIPOS>SUBSTRUCTURE
     1 ZINC000859202493        1 TEMP              0 ****  ****    0 ROOT


##########                                Name:    ZINC000288921983
##########                DOCK_Rotatable_Bonds:                   6
##########                         Heavy_Atoms:                  26
##########                    Molecular_Weight:             356.428
##########                DOCK_Rotatable_Bonds:                   6
##########                       Formal_Charge:           0.0199997
##########                     HBond_Acceptors:                   8
##########                        HBond_Donors:                   1
##########                         Heavy_Atoms:                  26
##########                          Grid_Score:          -29.956511
##########                     Grid_vdw_energy:          -30.661451
##########                      Grid_es_energy:            0.704940
##########           Internal_energy_repulsive:           60.238926

@<TRIPOS>MOLECULE
ZINC000288921983
 50 53 1 0 0
SMALL
USER_CHARGES


@<TRIPOS>ATOM
      1 C1         -6.2293    3.9726   57.4136 C.3     1  ZINC000288921983   -0.1400
      2 C2         -6.3441    2.6584   56.6386 C.3     1  ZINC000288921983   -0.0500
      3 C3         -7.4663    1.8328   57.2132 C.ar    1  ZINC000288921983    0.3000
      4 N4         -8.6516    1.8761   56.6385 N.ar    1  ZINC000288921983   -0.5000
      5 C5         -9.6622    1.1664   57.1122 C.ar    1  ZINC000288921983    0.1300
      6 C6         -9.4590    0.3665   58.2335 C.ar    1  ZINC000288921983    0.0500
      7 N7        -10.5013   -0.4010   58.7669 N.am    1  ZINC000288921983   -0.6700
      8 C8        -11.1504   -1.2896   57.9888 C.2     1  ZINC000288921983    0.7100
      9 O9        -10.8308   -1.4246   56.8234 O.2     1  ZINC000288921983   -0.5500
     10 N10       -12.1538   -2.0284   58.5023 N.am    1  ZINC000288921983   -0.6200
     11 C11       -12.5515   -1.8763   59.9085 C.3     1  ZINC000288921983    0.1100
     12 C12       -14.0571   -1.5994   59.9680 C.3     1  ZINC000288921983   -0.1400
     13 C13       -14.8049   -2.7050   59.2192 C.3     1  ZINC000288921983   -0.1200
     14 C14       -14.3726   -2.7116   57.7512 C.3     1  ZINC000288921983   -0.1300
     15 C15       -12.8747   -2.9968   57.6650 C.3     1  ZINC000288921983    0.2700
     16 H16       -12.6734   -4.0051   58.0269 H       1  ZINC000288921983    0.1100
     17 C17       -12.4184   -2.8730   56.2341 C.2     1  ZINC000288921983    0.1700
     18 N18       -11.5769   -3.6573   55.6227 N.2     1  ZINC000288921983   -0.2500
     19 N19       -11.4212   -3.2546   54.4106 N.2     1  ZINC000288921983   -0.2700
     20 C20       -12.1583   -2.1998   54.2075 C.2     1  ZINC000288921983    0.1800
     21 C21       -12.2653   -1.4207   52.9219 C.3     1  ZINC000288921983   -0.0300
     22 C22       -12.0755    0.0946   53.1023 C.3     1  ZINC000288921983   -0.1200
     23 C23       -10.5716   -0.1482   52.8923 C.3     1  ZINC000288921983   -0.1400
     24 C24       -10.9654   -1.4063   52.1005 C.3     1  ZINC000288921983   -0.1200
     25 O25       -12.8093   -1.9369   55.3531 O.3     1  ZINC000288921983   -0.2200
     26 C26        -8.1918    0.3494   58.8100 C.ar    1  ZINC000288921983    0.1600
     27 N27        -7.2323    1.0842   58.2724 N.ar    1  ZINC000288921983   -0.5000
     28 H28        -5.4176    4.5697   56.9980 H       1  ZINC000288921983    0.0700
     29 H29        -7.1653    4.5252   57.3325 H       1  ZINC000288921983    0.0600
     30 H30        -6.0231    3.7590   58.4624 H       1  ZINC000288921983    0.0600
     31 H31        -6.5503    2.8719   55.5898 H       1  ZINC000288921983    0.0900
     32 H32        -5.4081    2.1057   56.7197 H       1  ZINC000288921983    0.0900
     33 H33       -10.6309    1.2071   56.6364 H       1  ZINC000288921983    0.1700
     34 H34       -10.7562   -0.2932   59.6966 H       1  ZINC000288921983    0.4100
     35 H35       -12.3270   -2.7935   60.4530 H       1  ZINC000288921983    0.0800
     36 H36       -12.0088   -1.0424   60.3536 H       1  ZINC000288921983    0.0800
     37 H37       -14.3826   -1.5799   61.0080 H       1  ZINC000288921983    0.0900
     38 H38       -14.2686   -0.6370   59.5019 H       1  ZINC000288921983    0.0700
     39 H39       -14.5735   -3.6698   59.6704 H       1  ZINC000288921983    0.0700
     40 H40       -15.8780   -2.5235   59.2810 H       1  ZINC000288921983    0.0800
     41 H41       -14.9228   -3.4839   57.2135 H       1  ZINC000288921983    0.0900
     42 H42       -14.5812   -1.7388   57.3060 H       1  ZINC000288921983    0.0900
     43 H43       -13.1474   -1.6854   52.3388 H       1  ZINC000288921983    0.1000
     44 H44       -12.5361    0.6892   52.3134 H       1  ZINC000288921983    0.1000
     45 H45       -12.3250    0.4499   54.1021 H       1  ZINC000288921983    0.0800
     46 H46       -10.0866    0.6160   52.2849 H       1  ZINC000288921983    0.0700
     47 H47       -10.0312   -0.3637   53.8140 H       1  ZINC000288921983    0.1000
     48 H48       -10.3186   -2.2626   52.2914 H       1  ZINC000288921983    0.0700
     49 H49       -11.1224   -1.2219   51.0377 H       1  ZINC000288921983    0.1000
     50 H50        -7.9941   -0.2579   59.6809 H       1  ZINC000288921983    0.1800
@<TRIPOS>BOND
     1     1     2    1
     2     1    28    1
     3     1    29    1
     4     1    30    1
     5     2     3    1
     6     2    31    1
     7     2    32    1
     8     3    27   ar
     9     3     4   ar
    10     4     5   ar
    11     5     6   ar
    12     5    33    1
    13     6     7    1
    14     6    26   ar
    15     7     8   am
    16     7    34    1
    17     8     9    2
    18     8    10   am
    19    10    15    1
    20    10    11    1
    21    11    12    1
    22    11    35    1
    23    11    36    1
    24    12    13    1
    25    12    37    1
    26    12    38    1
    27    13    14    1
    28    13    39    1
    29    13    40    1
    30    14    15    1
    31    14    41    1
    32    14    42    1
    33    15    16    1
    34    15    17    1
    35    17    25    1
    36    17    18    2
    37    18    19    1
    38    19    20    2
    39    20    21    1
    40    20    25    1
    41    21    24    1
    42    21    22    1
    43    21    43    1
    44    22    23    1
    45    22    44    1
    46    22    45    1
    47    23    24    1
    48    23    46    1
    49    23    47    1
    50    24    48    1
    51    24    49    1
    52    26    27   ar
    53    26    50    1
@<TRIPOS>SUBSTRUCTURE
     1 ZINC000288921983        1 TEMP              0 ****  ****    0 ROOT


##########                                Name:    ZINC001327099466
##########                DOCK_Rotatable_Bonds:                   7
##########                         Heavy_Atoms:                  27
##########                    Molecular_Weight:             374.483
##########                DOCK_Rotatable_Bonds:                   7
##########                       Formal_Charge:           0.0199998
##########                     HBond_Acceptors:                   7
##########                        HBond_Donors:                   1
##########                         Heavy_Atoms:                  27
##########                          Grid_Score:          -29.934935
##########                     Grid_vdw_energy:          -26.014347
##########                      Grid_es_energy:           -3.920588
##########           Internal_energy_repulsive:           17.527554

@<TRIPOS>MOLECULE
ZINC001327099466
 57 60 1 0 0
SMALL
USER_CHARGES


@<TRIPOS>ATOM
      1 O1          1.5740    3.8962   51.6679 O.2     1  ZINC001327099466   -0.4800
      2 C2          0.8270    4.4746   50.9057 C.2     1  ZINC001327099466    0.5300
      3 N3         -0.4800    4.6013   51.2095 N.am    1  ZINC001327099466   -0.6000
      4 C4         -0.9768    4.0612   52.4008 C.2     1  ZINC001327099466    0.2900
      5 N5         -0.2577    3.5983   53.3968 N.2     1  ZINC001327099466   -0.3100
      6 N6         -1.1319    3.1510   54.3956 N.pl3   1  ZINC001327099466   -0.3500
      7 C7         -0.7425    2.5608   55.6787 C.3     1  ZINC001327099466    0.1700
      8 C8          0.6393    1.9175   55.5457 C.3     1  ZINC001327099466   -0.1300
      9 C9          1.0460    1.3012   56.8858 C.3     1  ZINC001327099466   -0.1200
     10 C10         1.0926    2.3933   57.9563 C.3     1  ZINC001327099466   -0.1300
     11 C11        -0.2892    3.0366   58.0891 C.3     1  ZINC001327099466   -0.1200
     12 C12        -0.6958    3.6530   56.7492 C.3     1  ZINC001327099466   -0.1300
     13 C13        -2.3957    3.3593   53.9695 C.2     1  ZINC001327099466    0.0700
     14 C14        -2.3323    3.9250   52.7431 C.2     1  ZINC001327099466   -0.2700
     15 C15         1.3573    5.0511   49.6342 C.2     1  ZINC001327099466    0.5100
     16 O16         1.6894    6.2175   49.5888 O.2     1  ZINC001327099466   -0.5100
     17 N17         1.4670    4.2761   48.5370 N.am    1  ZINC001327099466   -0.5700
     18 C18         1.9869    4.8290   47.2789 C.3     1  ZINC001327099466    0.0400
     19 C19         0.9790    4.5437   46.1611 C.3     1  ZINC001327099466   -0.1300
     20 C20         0.6865    3.0422   46.1144 C.3     1  ZINC001327099466   -0.1200
     21 C21         0.0717    2.5990   47.4439 C.3     1  ZINC001327099466    0.0800
     22 H22        -0.8435    3.1620   47.6271 H       1  ZINC001327099466    0.0700
     23 O23        -0.2301    1.2033   47.3881 O.3     1  ZINC001327099466   -0.3500
     24 C24        -1.6286    0.9121   47.3518 C.3     1  ZINC001327099466    0.0600
     25 C25        -2.0292   -0.0452   46.2169 C.3     1  ZINC001327099466   -0.1600
     26 C26        -1.7605   -1.1971   47.1998 C.3     1  ZINC001327099466   -0.1400
     27 C27        -2.0526   -0.1961   48.3301 C.3     1  ZINC001327099466   -0.1400
     28 C28         1.0745    2.8608   48.5778 C.3     1  ZINC001327099466    0.0900
     29 H29        -1.0761    5.0669   50.6023 H       1  ZINC001327099466    0.4300
     30 H30        -1.4705    1.8019   55.9654 H       1  ZINC001327099466    0.1000
     31 H31         0.6060    1.1394   54.7832 H       1  ZINC001327099466    0.0700
     32 H32         1.3673    2.6765   55.2591 H       1  ZINC001327099466    0.0700
     33 H33         0.3180    0.5423   57.1725 H       1  ZINC001327099466    0.0700
     34 H34         2.0304    0.8429   56.7911 H       1  ZINC001327099466    0.0700
     35 H35         1.3823    1.9543   58.9109 H       1  ZINC001327099466    0.0700
     36 H36         1.8207    3.1523   57.6696 H       1  ZINC001327099466    0.0700
     37 H37        -1.0172    2.2777   58.3759 H       1  ZINC001327099466    0.0700
     38 H38        -0.2559    3.8147   58.8519 H       1  ZINC001327099466    0.0700
     39 H39         0.0321    4.4119   56.4624 H       1  ZINC001327099466    0.0700
     40 H40        -1.6803    4.1112   56.8438 H       1  ZINC001327099466    0.0700
     41 H41        -3.2975    3.1201   54.5136 H       1  ZINC001327099466    0.1800
     42 H42        -3.1745    4.2153   52.1324 H       1  ZINC001327099466    0.1700
     43 H43         2.1236    5.9055   47.3817 H       1  ZINC001327099466    0.1600
     44 H44         2.9407    4.3587   47.0397 H       1  ZINC001327099466    0.0700
     45 H45         0.0553    5.0884   46.3564 H       1  ZINC001327099466    0.0700
     46 H46         1.3953    4.8631   45.2057 H       1  ZINC001327099466    0.0900
     47 H47        -0.0116    2.8334   45.3038 H       1  ZINC001327099466    0.0800
     48 H48         1.6146    2.4966   45.9437 H       1  ZINC001327099466    0.0800
     49 H49        -2.2489    1.8065   47.4098 H       1  ZINC001327099466    0.0700
     50 H50        -3.0746    0.0415   45.9212 H       1  ZINC001327099466    0.0900
     51 H51        -1.3453   -0.0269   45.3684 H       1  ZINC001327099466    0.0700
     52 H52        -2.4882   -2.0059   47.1340 H       1  ZINC001327099466    0.0700
     53 H53        -0.7298   -1.5515   47.1860 H       1  ZINC001327099466    0.0800
     54 H54        -1.3875   -0.2996   49.1876 H       1  ZINC001327099466    0.0800
     55 H55        -3.1045   -0.1506   48.6121 H       1  ZINC001327099466    0.0900
     56 H56         1.9521    2.2287   48.4426 H       1  ZINC001327099466    0.0900
     57 H57         0.6070    2.6400   49.5374 H       1  ZINC001327099466    0.1000
@<TRIPOS>BOND
     1     1     2    2
     2     2     3   am
     3     2    15    1
     4     3     4    1
     5     3    29    1
     6     4    14    1
     7     4     5    2
     8     5     6    1
     9     6     7    1
    10     6    13    1
    11     7    12    1
    12     7     8    1
    13     7    30    1
    14     8     9    1
    15     8    31    1
    16     8    32    1
    17     9    10    1
    18     9    33    1
    19     9    34    1
    20    10    11    1
    21    10    35    1
    22    10    36    1
    23    11    12    1
    24    11    37    1
    25    11    38    1
    26    12    39    1
    27    12    40    1
    28    13    14    2
    29    13    41    1
    30    14    42    1
    31    15    16    2
    32    15    17   am
    33    17    28    1
    34    17    18    1
    35    18    19    1
    36    18    43    1
    37    18    44    1
    38    19    20    1
    39    19    45    1
    40    19    46    1
    41    20    21    1
    42    20    47    1
    43    20    48    1
    44    21    22    1
    45    21    23    1
    46    21    28    1
    47    23    24    1
    48    24    27    1
    49    24    25    1
    50    24    49    1
    51    25    26    1
    52    25    50    1
    53    25    51    1
    54    26    27    1
    55    26    52    1
    56    26    53    1
    57    27    54    1
    58    27    55    1
    59    28    56    1
    60    28    57    1
@<TRIPOS>SUBSTRUCTURE
     1 ZINC001327099466        1 TEMP              0 ****  ****    0 ROOT


##########                                Name:    ZINC000461678839
##########                DOCK_Rotatable_Bonds:                   6
##########                         Heavy_Atoms:                  28
##########                    Molecular_Weight:             404.939
##########                DOCK_Rotatable_Bonds:                   6
##########                       Formal_Charge:          -0.0200003
##########                     HBond_Acceptors:                   7
##########                        HBond_Donors:                   0
##########                         Heavy_Atoms:                  28
##########                          Grid_Score:          -29.930679
##########                     Grid_vdw_energy:          -31.482185
##########                      Grid_es_energy:            1.551506
##########           Internal_energy_repulsive:           20.551579

@<TRIPOS>MOLECULE
ZINC000461678839
 57 60 1 0 0
SMALL
USER_CHARGES


@<TRIPOS>ATOM
      1 C1        -13.7140    0.9421   51.1736 C.3     1  ZINC000461678839   -0.1500
      2 C2        -12.5497    0.4166   52.0157 C.3     1  ZINC000461678839   -0.0900
      3 H3        -11.6204    0.8515   51.6479 H       1  ZINC000461678839    0.0700
      4 C4        -12.4780   -1.1204   51.8731 C.3     1  ZINC000461678839   -0.1100
      5 C5        -11.1183   -1.5877   52.3197 C.3     1  ZINC000461678839   -0.1200
      6 C6        -11.0724   -1.9601   53.8124 C.3     1  ZINC000461678839    0.0600
      7 N7        -11.8011   -1.0061   54.6771 N.3     1  ZINC000461678839   -0.4600
      8 C8        -11.5079   -1.2236   56.0140 C.2     1  ZINC000461678839    0.3700
      9 N9        -10.5836   -0.6149   56.7189 N.2     1  ZINC000461678839   -0.3100
     10 N10       -10.5880   -1.0623   57.9238 N.2     1  ZINC000461678839   -0.2500
     11 C11       -11.5076   -1.9754   58.0580 C.2     1  ZINC000461678839    0.1700
     12 C12       -11.8302   -2.7402   59.3159 C.3     1  ZINC000461678839    0.1500
     13 O13       -12.0958   -1.8210   60.3772 O.3     1  ZINC000461678839   -0.3100
     14 C14       -11.0426   -1.4556   61.1550 C.ar    1  ZINC000461678839    0.1400
     15 C15       -11.2621   -0.8041   62.3598 C.ar    1  ZINC000461678839   -0.2000
     16 C16       -10.1905   -0.4334   63.1489 C.ar    1  ZINC000461678839   -0.0700
     17 C17        -8.8989   -0.7113   62.7380 C.ar    1  ZINC000461678839   -0.0700
     18 Cl18       -7.5537   -0.2441   63.7310 Cl      1  ZINC000461678839   -0.0700
     19 C19        -8.6779   -1.3615   61.5367 C.ar    1  ZINC000461678839   -0.0700
     20 C20        -9.7471   -1.7387   60.7476 C.ar    1  ZINC000461678839   -0.1400
     21 N21       -12.1299   -2.1070   56.8475 N.pl3   1  ZINC000461678839   -0.4600
     22 C22       -13.2302   -3.0144   56.5126 C.3     1  ZINC000461678839    0.1200
     23 C23       -14.5341   -2.2203   56.4137 C.3     1  ZINC000461678839   -0.1400
     24 H24       -14.3414   -1.2186   56.0294 H       1  ZINC000461678839    0.0900
     25 C25       -15.2295   -2.1461   57.7948 C.3     1  ZINC000461678839   -0.1500
     26 C26       -16.7204   -2.3404   57.4185 C.3     1  ZINC000461678839    0.0500
     27 O27       -16.6739   -3.3039   56.3443 O.3     1  ZINC000461678839   -0.3700
     28 C28       -15.5475   -2.9567   55.5162 C.3     1  ZINC000461678839    0.0400
     29 C29       -11.5908    0.3762   54.3198 C.3     1  ZINC000461678839    0.0700
     30 C30       -12.7468    0.8188   53.4040 C.3     1  ZINC000461678839   -0.1100
     31 H31       -13.7596    2.0282   51.2543 H       1  ZINC000461678839    0.0500
     32 H32       -13.5642    0.6612   50.1311 H       1  ZINC000461678839    0.0500
     33 H33       -14.6476    0.5113   51.5355 H       1  ZINC000461678839    0.0600
     34 H34       -13.2450   -1.5810   52.4957 H       1  ZINC000461678839    0.0700
     35 H35       -12.6354   -1.3983   50.8310 H       1  ZINC000461678839    0.0700
     36 H36       -10.8364   -2.4607   51.7311 H       1  ZINC000461678839    0.0800
     37 H37       -10.3955   -0.7933   52.1336 H       1  ZINC000461678839    0.0700
     38 H38       -11.5091   -2.9508   53.9393 H       1  ZINC000461678839    0.0700
     39 H39       -10.0309   -1.9963   54.1319 H       1  ZINC000461678839    0.0500
     40 H40       -12.7082   -3.3636   59.1469 H       1  ZINC000461678839    0.0800
     41 H41       -10.9830   -3.3709   59.5848 H       1  ZINC000461678839    0.1000
     42 H42       -12.2701   -0.5864   62.6806 H       1  ZINC000461678839    0.1400
     43 H43       -10.3610    0.0738   64.0870 H       1  ZINC000461678839    0.1400
     44 H44        -7.6690   -1.5778   61.2178 H       1  ZINC000461678839    0.1400
     45 H45        -9.5743   -2.2463   59.8101 H       1  ZINC000461678839    0.1400
     46 H46       -13.0252   -3.4969   55.5569 H       1  ZINC000461678839    0.1100
     47 H47       -13.3247   -3.7730   57.2895 H       1  ZINC000461678839    0.1000
     48 H48       -14.8852   -2.9486   58.4473 H       1  ZINC000461678839    0.0800
     49 H49       -15.0692   -1.1732   58.2593 H       1  ZINC000461678839    0.0900
     50 H50       -17.2815   -2.7363   58.2651 H       1  ZINC000461678839    0.1000
     51 H51       -17.1548   -1.4020   57.0739 H       1  ZINC000461678839    0.0600
     52 H52       -15.8709   -2.3045   54.7050 H       1  ZINC000461678839    0.0500
     53 H53       -15.0937   -3.8604   55.1095 H       1  ZINC000461678839    0.1100
     54 H54       -11.5788    0.9906   55.2200 H       1  ZINC000461678839    0.0900
     55 H55       -10.6428    0.4788   53.7917 H       1  ZINC000461678839    0.0600
     56 H56       -12.8328    1.9046   53.4456 H       1  ZINC000461678839    0.0700
     57 H57       -13.6746    0.3799   53.7709 H       1  ZINC000461678839    0.0700
@<TRIPOS>BOND
     1     1     2    1
     2     1    31    1
     3     1    32    1
     4     1    33    1
     5     2     3    1
     6     2    30    1
     7     2     4    1
     8     4     5    1
     9     4    34    1
    10     4    35    1
    11     5     6    1
    12     5    36    1
    13     5    37    1
    14     6     7    1
    15     6    38    1
    16     6    39    1
    17     7     8    1
    18     7    29    1
    19     8    21    1
    20     8     9    2
    21     9    10    1
    22    10    11    2
    23    11    12    1
    24    11    21    1
    25    12    13    1
    26    12    40    1
    27    12    41    1
    28    13    14    1
    29    14    20   ar
    30    14    15   ar
    31    15    16   ar
    32    15    42    1
    33    16    17   ar
    34    16    43    1
    35    17    18    1
    36    17    19   ar
    37    19    20   ar
    38    19    44    1
    39    20    45    1
    40    21    22    1
    41    22    23    1
    42    22    46    1
    43    22    47    1
    44    23    24    1
    45    23    28    1
    46    23    25    1
    47    25    26    1
    48    25    48    1
    49    25    49    1
    50    26    27    1
    51    26    50    1
    52    26    51    1
    53    27    28    1
    54    28    52    1
    55    28    53    1
    56    29    30    1
    57    29    54    1
    58    29    55    1
    59    30    56    1
    60    30    57    1
@<TRIPOS>SUBSTRUCTURE
     1 ZINC000461678839        1 TEMP              0 ****  ****    0 ROOT


##########                                Name:    ZINC000750807956
##########                DOCK_Rotatable_Bonds:                  11
##########                         Heavy_Atoms:                  26
##########                    Molecular_Weight:             368.473
##########                DOCK_Rotatable_Bonds:                  11
##########                       Formal_Charge:        -8.12113e-07
##########                     HBond_Acceptors:                   7
##########                        HBond_Donors:                   1
##########                         Heavy_Atoms:                  26
##########                          Grid_Score:          -29.917328
##########                     Grid_vdw_energy:          -30.476391
##########                      Grid_es_energy:            0.559063
##########           Internal_energy_repulsive:           96.471313

@<TRIPOS>MOLECULE
ZINC000750807956
 58 59 1 0 0
SMALL
USER_CHARGES


@<TRIPOS>ATOM
      1 C1         -0.8863   -2.4920   48.5740 C.3     1  ZINC000750807956   -0.1500
      2 C2         -1.9252   -1.4206   48.2365 C.3     1  ZINC000750807956    0.0700
      3 O3         -1.2579   -0.1483   48.0267 O.3     1  ZINC000750807956   -0.3600
      4 C4         -1.9519    0.8058   47.3867 C.2     1  ZINC000750807956    0.4800
      5 O5         -3.1585    0.7535   47.3505 O.2     1  ZINC000750807956   -0.4900
      6 C6         -1.2265    1.9420   46.7132 C.3     1  ZINC000750807956    0.1600
      7 H7         -1.8414    2.3412   45.9066 H       1  ZINC000750807956    0.1000
      8 C8          0.1028    1.4368   46.1436 C.3     1  ZINC000750807956   -0.1300
      9 C9          0.8965    2.6200   45.5849 C.3     1  ZINC000750807956   -0.1200
     10 C10         1.1991    3.6109   46.7111 C.3     1  ZINC000750807956   -0.1400
     11 C11        -0.1179    4.1408   47.2872 C.3     1  ZINC000750807956    0.1100
     12 N12        -0.9521    3.0012   47.6937 N.am    1  ZINC000750807956   -0.6100
     13 C13        -1.4512    2.9270   48.9434 C.2     1  ZINC000750807956    0.5100
     14 O14        -2.1384    1.9813   49.2667 O.2     1  ZINC000750807956   -0.5000
     15 C15        -1.1556    4.0189   49.9390 C.3     1  ZINC000750807956   -0.1400
     16 C16        -1.9654    3.7787   51.2148 C.3     1  ZINC000750807956    0.2100
     17 H17        -1.9940    2.7108   51.4312 H       1  ZINC000750807956    0.1000
     18 N18        -3.3306    4.2758   51.0276 N.am    1  ZINC000750807956   -0.7000
     19 C19        -4.2140    4.2183   52.0437 C.2     1  ZINC000750807956    0.6600
     20 O20        -3.8777    3.7553   53.1158 O.2     1  ZINC000750807956   -0.5600
     21 O21        -5.4692    4.6737   51.8712 O.3     1  ZINC000750807956   -0.3700
     22 C22        -6.3605    4.5994   53.0151 C.3     1  ZINC000750807956    0.1400
     23 C23        -6.5201    3.1392   53.4433 C.3     1  ZINC000750807956   -0.1800
     24 C24        -5.7732    5.4091   54.1728 C.3     1  ZINC000750807956   -0.1400
     25 C25        -7.7275    5.1715   52.6344 C.3     1  ZINC000750807956   -0.1800
     26 C26        -1.3089    4.5182   52.3824 C.3     1  ZINC000750807956   -0.1800
     27 C27        -0.9858    3.7081   53.6395 C.3     1  ZINC000750807956   -0.1700
     28 C28         0.1429    4.1672   52.7141 C.3     1  ZINC000750807956   -0.1800
     29 H29        -0.3527   -2.2077   49.4809 H       1  ZINC000750807956    0.0600
     30 H30        -1.3874   -3.4471   48.7314 H       1  ZINC000750807956    0.0800
     31 H31        -0.1788   -2.5843   47.7500 H       1  ZINC000750807956    0.0700
     32 H32        -2.4588   -1.7049   47.3295 H       1  ZINC000750807956    0.0700
     33 H33        -2.6327   -1.3283   49.0605 H       1  ZINC000750807956    0.0600
     34 H34         0.6774    0.9542   46.9342 H       1  ZINC000750807956    0.0800
     35 H35        -0.0922    0.7202   45.3457 H       1  ZINC000750807956    0.0800
     36 H36         1.8320    2.2600   45.1567 H       1  ZINC000750807956    0.0800
     37 H37         0.3109    3.1171   44.8114 H       1  ZINC000750807956    0.0700
     38 H38         1.7633    3.1079   47.4965 H       1  ZINC000750807956    0.0700
     39 H39         1.7843    4.4418   46.3173 H       1  ZINC000750807956    0.0800
     40 H40         0.0889    4.7698   48.1530 H       1  ZINC000750807956    0.0900
     41 H41        -0.6414    4.7216   46.5277 H       1  ZINC000750807956    0.0800
     42 H42        -0.0921    4.0149   50.1775 H       1  ZINC000750807956    0.1200
     43 H43        -1.4286    4.9838   49.5117 H       1  ZINC000750807956    0.1100
     44 H44        -3.5988    4.6465   50.1722 H       1  ZINC000750807956    0.4000
     45 H45        -5.5463    2.7316   53.7144 H       1  ZINC000750807956    0.0600
     46 H46        -7.1893    3.0835   54.3019 H       1  ZINC000750807956    0.0700
     47 H47        -6.9386    2.5624   52.6185 H       1  ZINC000750807956    0.0900
     48 H48        -5.6595    6.4493   53.8678 H       1  ZINC000750807956    0.0700
     49 H49        -6.4422    5.3533   55.0315 H       1  ZINC000750807956    0.0800
     50 H50        -4.7993    5.0014   54.4440 H       1  ZINC000750807956    0.0700
     51 H51        -8.1460    4.5947   51.8096 H       1  ZINC000750807956    0.0900
     52 H52        -8.3966    5.1158   53.4931 H       1  ZINC000750807956    0.0700
     53 H53        -7.6139    6.2118   52.3294 H       1  ZINC000750807956    0.0600
     54 H54        -1.6196    5.5543   52.5168 H       1  ZINC000750807956    0.1100
     55 H55        -1.0840    4.2112   54.6014 H       1  ZINC000750807956    0.0900
     56 H56        -1.2410    2.6484   53.6347 H       1  ZINC000750807956    0.0900
     57 H57         0.6303    3.4094   52.1006 H       1  ZINC000750807956    0.1200
     58 H58         0.7872    4.9723   53.0672 H       1  ZINC000750807956    0.0900
@<TRIPOS>BOND
     1     1     2    1
     2     1    29    1
     3     1    30    1
     4     1    31    1
     5     2     3    1
     6     2    32    1
     7     2    33    1
     8     3     4    1
     9     4     5    2
    10     4     6    1
    11     6     7    1
    12     6    12    1
    13     6     8    1
    14     8     9    1
    15     8    34    1
    16     8    35    1
    17     9    10    1
    18     9    36    1
    19     9    37    1
    20    10    11    1
    21    10    38    1
    22    10    39    1
    23    11    12    1
    24    11    40    1
    25    11    41    1
    26    12    13   am
    27    13    14    2
    28    13    15    1
    29    15    16    1
    30    15    42    1
    31    15    43    1
    32    16    17    1
    33    16    18    1
    34    16    26    1
    35    18    19   am
    36    18    44    1
    37    19    20    2
    38    19    21    1
    39    21    22    1
    40    22    23    1
    41    22    24    1
    42    22    25    1
    43    23    45    1
    44    23    46    1
    45    23    47    1
    46    24    48    1
    47    24    49    1
    48    24    50    1
    49    25    51    1
    50    25    52    1
    51    25    53    1
    52    26    28    1
    53    26    27    1
    54    26    54    1
    55    27    28    1
    56    27    55    1
    57    27    56    1
    58    28    57    1
    59    28    58    1
@<TRIPOS>SUBSTRUCTURE
     1 ZINC000750807956        1 TEMP              0 ****  ****    0 ROOT


##########                                Name:    ZINC000338927927
##########                DOCK_Rotatable_Bonds:                   9
##########                         Heavy_Atoms:                  23
##########                    Molecular_Weight:             336.286
##########                DOCK_Rotatable_Bonds:                   9
##########                       Formal_Charge:         -0.00999999
##########                     HBond_Acceptors:                   9
##########                        HBond_Donors:                   2
##########                         Heavy_Atoms:                  23
##########                          Grid_Score:          -29.892424
##########                     Grid_vdw_energy:          -29.308487
##########                      Grid_es_energy:           -0.583937
##########           Internal_energy_repulsive:           18.351582

@<TRIPOS>MOLECULE
ZINC000338927927
 39 39 1 0 0
SMALL
USER_CHARGES


@<TRIPOS>ATOM
      1 C1         -2.2350    1.5549   48.9473 C.3     1  <0>        -0.1600
      2 C2         -2.5942    0.2222   48.2872 C.3     1  <0>        -0.1100
      3 C3         -1.4182   -0.2578   47.4344 C.3     1  <0>        -0.1000
      4 H4         -0.5424   -0.3966   48.0683 H       1  <0>         0.1400
      5 C5         -1.1137    0.7697   46.3748 C.2     1  <0>         0.5200
      6 O6         -1.9359    1.0207   45.5193 O.2     1  <0>        -0.4700
      7 N7          0.0725    1.4096   46.3779 N.am    1  <0>        -0.6700
      8 C8          0.3553    2.3636   45.3942 C.ar    1  <0>         0.2200
      9 C9          0.3408    2.0039   44.0530 C.ar    1  <0>        -0.2300
     10 C10         0.6205    2.9471   43.0793 C.ar    1  <0>         0.1700
     11 F11         0.6058    2.5950   41.7751 F       1  <0>        -0.1300
     12 C12         0.9144    4.2501   43.4398 C.ar    1  <0>        -0.2500
     13 C13         0.9299    4.6143   44.7805 C.ar    1  <0>         0.2600
     14 N14         1.2272    5.9297   45.1441 N.pl3   1  <0>        -0.7400
     15 C15         0.2148    6.9779   44.9935 C.3     1  <0>         0.0800
     16 C16        -0.2015    7.4870   46.3749 C.3     1  <0>         0.4500
     17 F17        -0.6279    6.4103   47.1598 F       1  <0>        -0.1800
     18 F18         0.8895    8.1098   46.9907 F       1  <0>        -0.1700
     19 F19        -1.2469    8.4066   46.2374 F       1  <0>        -0.1800
     20 C20         0.6447    3.6712   45.7580 C.ar    1  <0>        -0.2000
     21 C21        -1.7751   -1.5663   46.7774 C.2     1  <0>         0.4600
     22 O22        -2.4883   -1.5779   45.8022 O.2     1  <0>        -0.4600
     23 O23        -1.3007   -2.7188   47.2756 O.3     1  <0>        -0.3500
     24 C24        -0.4509   -2.6293   48.4495 C.3     1  <0>         0.0300
     25 H25        -2.0188    2.2953   48.1772 H       1  <0>         0.0600
     26 H26        -3.0729    1.8968   49.5550 H       1  <0>         0.0600
     27 H27        -1.3576    1.4220   49.5802 H       1  <0>         0.0800
     28 H28        -2.8105   -0.5181   49.0575 H       1  <0>         0.0800
     29 H29        -3.4716    0.3551   47.6543 H       1  <0>         0.0800
     30 H30         0.7301    1.2089   47.0621 H       1  <0>         0.4200
     31 H31         0.1116    0.9873   43.7695 H       1  <0>         0.1400
     32 H32         1.1323    4.9846   42.6785 H       1  <0>         0.1400
     33 H33         2.1038    6.1492   45.4962 H       1  <0>         0.4100
     34 H34         0.6285    7.8017   44.4121 H       1  <0>         0.1100
     35 H35        -0.6556    6.5710   44.4788 H       1  <0>         0.1100
     36 H36         0.6563    3.9525   46.8005 H       1  <0>         0.1500
     37 H37        -0.1369   -3.6295   48.7480 H       1  <0>         0.1000
     38 H38         0.4275   -2.0271   48.2171 H       1  <0>         0.0600
     39 H39        -1.0050   -2.1640   49.2647 H       1  <0>         0.0600
@<TRIPOS>BOND
     1     1     2    1
     2     1    25    1
     3     1    26    1
     4     1    27    1
     5     2     3    1
     6     2    28    1
     7     2    29    1
     8     3     4    1
     9     3     5    1
    10     3    21    1
    11     5     6    2
    12     5     7   am
    13     7     8    1
    14     7    30    1
    15     8    20   ar
    16     8     9   ar
    17     9    10   ar
    18     9    31    1
    19    10    11    1
    20    10    12   ar
    21    12    13   ar
    22    12    32    1
    23    13    14    1
    24    13    20   ar
    25    14    15    1
    26    14    33    1
    27    15    16    1
    28    15    34    1
    29    15    35    1
    30    16    17    1
    31    16    18    1
    32    16    19    1
    33    20    36    1
    34    21    22    2
    35    21    23    1
    36    23    24    1
    37    24    37    1
    38    24    38    1
    39    24    39    1
@<TRIPOS>SUBSTRUCTURE
     1 <0>         1 TEMP              0 ****  ****    0 ROOT


##########                                Name:    ZINC000840649129
##########                DOCK_Rotatable_Bonds:                   8
##########                         Heavy_Atoms:                  26
##########                    Molecular_Weight:             376.839
##########                DOCK_Rotatable_Bonds:                   8
##########                       Formal_Charge:          -0.0199998
##########                     HBond_Acceptors:                   7
##########                        HBond_Donors:                   3
##########                         Heavy_Atoms:                  26
##########                          Grid_Score:          -29.890192
##########                     Grid_vdw_energy:          -29.463249
##########                      Grid_es_energy:           -0.426942
##########           Internal_energy_repulsive:           15.190380

@<TRIPOS>MOLECULE
ZINC000840649129
 47 48 1 0 0
SMALL
USER_CHARGES


@<TRIPOS>ATOM
      1 C1        -14.1134   -3.8051   58.5867 C.3     1  ZINC000840649129    0.0200
      2 O2        -12.7224   -3.4781   58.5746 O.3     1  ZINC000840649129   -0.2900
      3 C3        -12.2074   -3.0193   57.4055 C.ar    1  ZINC000840649129    0.1400
      4 C4        -12.3493   -3.7634   56.2443 C.ar    1  ZINC000840649129   -0.1700
      5 C5        -11.8263   -3.2986   55.0543 C.ar    1  ZINC000840649129   -0.1200
      6 C6        -11.1541   -2.0817   55.0100 C.ar    1  ZINC000840649129    0.1700
      7 N7        -10.6273   -1.6187   53.7989 N.pl3   1  ZINC000840649129   -0.8800
      8 C8        -11.0054   -1.3272   56.1611 C.ar    1  ZINC000840649129   -0.1000
      9 C9        -11.5360   -1.7894   57.3682 C.ar    1  ZINC000840649129   -0.1200
     10 C10       -11.3824   -0.9918   58.5983 C.2     1  ZINC000840649129    0.5100
     11 O11       -12.3350   -0.3924   59.0567 O.2     1  ZINC000840649129   -0.4800
     12 O12       -10.1859   -0.9274   59.2146 O.3     1  ZINC000840649129   -0.3200
     13 C13        -9.8542    0.3190   59.8817 C.3     1  ZINC000840649129    0.0800
     14 H14       -10.7378    0.9559   59.9221 H       1  ZINC000840649129    0.1200
     15 C15        -8.7623    1.0225   59.1175 C.2     1  ZINC000840649129    0.5200
     16 O16        -7.6171    0.9751   59.5141 O.2     1  ZINC000840649129   -0.4900
     17 N17        -9.0584    1.7043   57.9933 N.am    1  ZINC000840649129   -0.6600
     18 C18        -8.0443    2.3579   57.2834 C.ar    1  ZINC000840649129    0.1600
     19 C19        -6.9106    1.6605   56.8894 C.ar    1  ZINC000840649129   -0.1400
     20 C20        -5.9115    2.3081   56.1885 C.ar    1  ZINC000840649129   -0.0900
     21 C21        -6.0394    3.6494   55.8791 C.ar    1  ZINC000840649129   -0.1300
     22 C22        -7.1671    4.3480   56.2703 C.ar    1  ZINC000840649129   -0.0900
     23 C23        -8.1727    3.7051   56.9665 C.ar    1  ZINC000840649129   -0.0700
     24 Cl24       -9.5885    4.5822   57.4568 Cl      1  ZINC000840649129   -0.0700
     25 C25        -9.3726    0.0239   61.3037 C.3     1  ZINC000840649129   -0.1100
     26 C26       -10.5612    0.0759   62.2656 C.3     1  ZINC000840649129   -0.1600
     27 C27        -8.7402   -1.3686   61.3493 C.3     1  ZINC000840649129   -0.1500
     28 H28       -14.3950   -4.1584   59.5788 H       1  ZINC000840649129    0.1000
     29 H29       -14.6972   -2.9192   58.3373 H       1  ZINC000840649129    0.0600
     30 H30       -14.3091   -4.5876   57.8535 H       1  ZINC000840649129    0.0600
     31 H31       -12.8698   -4.7092   56.2709 H       1  ZINC000840649129    0.1400
     32 H32       -11.9393   -3.8831   54.1531 H       1  ZINC000840649129    0.1300
     33 H33       -10.7312   -2.1463   52.9915 H       1  ZINC000840649129    0.4000
     34 H34       -10.1584   -0.7702   53.7667 H       1  ZINC000840649129    0.4000
     35 H35       -10.4836   -0.3823   56.1254 H       1  ZINC000840649129    0.1400
     36 H36        -9.9743    1.7422   57.6760 H       1  ZINC000840649129    0.4200
     37 H37        -6.8094    0.6127   57.1308 H       1  ZINC000840649129    0.1700
     38 H38        -5.0292    1.7657   55.8821 H       1  ZINC000840649129    0.1300
     39 H39        -5.2567    4.1529   55.3311 H       1  ZINC000840649129    0.1300
     40 H40        -7.2639    5.3959   56.0274 H       1  ZINC000840649129    0.1400
     41 H41        -8.6334    0.7685   61.5989 H       1  ZINC000840649129    0.0900
     42 H42       -11.3539   -0.5765   61.8994 H       1  ZINC000840649129    0.0700
     43 H43       -10.2438   -0.2573   63.2537 H       1  ZINC000840649129    0.0800
     44 H44       -10.9328    1.0987   62.3291 H       1  ZINC000840649129    0.0600
     45 H45        -7.8934   -1.4057   60.6639 H       1  ZINC000840649129    0.0500
     46 H46        -8.3972   -1.5788   62.3623 H       1  ZINC000840649129    0.0600
     47 H47        -9.4794   -2.1133   61.0540 H       1  ZINC000840649129    0.0700
@<TRIPOS>BOND
     1     1     2    1
     2     1    28    1
     3     1    29    1
     4     1    30    1
     5     2     3    1
     6     3     9   ar
     7     3     4   ar
     8     4     5   ar
     9     4    31    1
    10     5     6   ar
    11     5    32    1
    12     6     7    1
    13     6     8   ar
    14     7    33    1
    15     7    34    1
    16     8     9   ar
    17     8    35    1
    18     9    10    1
    19    10    11    2
    20    10    12    1
    21    12    13    1
    22    13    14    1
    23    13    15    1
    24    13    25    1
    25    15    16    2
    26    15    17   am
    27    17    18    1
    28    17    36    1
    29    18    23   ar
    30    18    19   ar
    31    19    20   ar
    32    19    37    1
    33    20    21   ar
    34    20    38    1
    35    21    22   ar
    36    21    39    1
    37    22    23   ar
    38    22    40    1
    39    23    24    1
    40    25    26    1
    41    25    27    1
    42    25    41    1
    43    26    42    1
    44    26    43    1
    45    26    44    1
    46    27    45    1
    47    27    46    1
    48    27    47    1
@<TRIPOS>SUBSTRUCTURE
     1 ZINC000840649129        1 TEMP              0 ****  ****    0 ROOT


##########                                Name:    ZINC000409064708
##########                DOCK_Rotatable_Bonds:                   8
##########                         Heavy_Atoms:                  29
##########                    Molecular_Weight:             415.442
##########                DOCK_Rotatable_Bonds:                   8
##########                       Formal_Charge:                0.03
##########                     HBond_Acceptors:                   8
##########                        HBond_Donors:                   0
##########                         Heavy_Atoms:                  29
##########                          Grid_Score:          -29.883575
##########                     Grid_vdw_energy:          -29.506754
##########                      Grid_es_energy:           -0.376821
##########           Internal_energy_repulsive:           22.555435

@<TRIPOS>MOLECULE
ZINC000409064708
 47 49 1 0 0
SMALL
USER_CHARGES


@<TRIPOS>ATOM
      1 C1         -1.1603   -2.6053   48.6089 C.3     1  ZINC000409064708    0.0400
      2 O2         -0.7711   -1.2065   48.5896 O.3     1  ZINC000409064708   -0.3500
      3 C3         -1.0942   -0.4992   47.4956 C.2     1  ZINC000409064708    0.4600
      4 O4         -1.7263   -1.0174   46.6058 O.2     1  ZINC000409064708   -0.4900
      5 C5         -0.6684    0.9416   47.3771 C.3     1  ZINC000409064708    0.1400
      6 H6          0.4155    0.9929   47.2743 H       1  ZINC000409064708    0.1500
      7 C7         -1.3276    1.5687   46.1471 C.3     1  ZINC000409064708   -0.1600
      8 N8         -1.0801    1.6728   48.5780 N.am    1  ZINC000409064708   -0.5600
      9 C9         -2.3254    1.5456   49.0505 C.2     1  ZINC000409064708    0.5400
     10 O10        -3.2119    0.8580   48.5806 O.2     1  ZINC000409064708   -0.4200
     11 S11        -2.4360    2.5700   50.4925 S.3     1  ZINC000409064708   -0.0100
     12 C12        -0.7575    3.1379   50.3916 C.2     1  ZINC000409064708   -0.2400
     13 C13        -0.1157    3.9977   51.2226 C.2     1  ZINC000409064708    0.0900
     14 C14        -0.8247    4.5754   52.3715 C.ar    1  ZINC000409064708   -0.1400
     15 C15        -1.3632    5.8654   52.2887 C.ar    1  ZINC000409064708    0.0000
     16 C16        -2.0269    6.4021   53.3689 C.ar    1  ZINC000409064708   -0.1600
     17 C17        -2.1625    5.6660   54.5404 C.ar    1  ZINC000409064708    0.1600
     18 O18        -2.8181    6.2002   55.6025 O.3     1  ZINC000409064708   -0.3000
     19 C19        -3.3221    5.2873   56.5797 C.3     1  ZINC000409064708    0.1000
     20 C20        -4.3773    4.4127   55.9531 C.ar    1  ZINC000409064708   -0.0700
     21 C21        -4.5438    3.1114   56.3882 C.ar    1  ZINC000409064708   -0.1000
     22 C22        -5.5114    2.3078   55.8142 C.ar    1  ZINC000409064708   -0.0900
     23 C23        -6.3134    2.8050   54.8048 C.ar    1  ZINC000409064708   -0.1400
     24 C24        -6.1479    4.1087   54.3683 C.ar    1  ZINC000409064708    0.1000
     25 F25        -6.9314    4.5959   53.3814 F       1  ZINC000409064708   -0.1400
     26 C26        -5.1822    4.9140   54.9474 C.ar    1  ZINC000409064708   -0.1300
     27 C27        -1.6299    4.3851   54.6281 C.ar    1  ZINC000409064708   -0.2200
     28 C28        -0.9697    3.8361   53.5520 C.ar    1  ZINC000409064708   -0.0400
     29 C29        -0.2220    2.4592   49.2060 C.2     1  ZINC000409064708    0.5600
     30 O30         0.9235    2.6138   48.8251 O.2     1  ZINC000409064708   -0.4600
     31 H31        -2.2440   -2.6822   48.5199 H       1  ZINC000409064708    0.0700
     32 H32        -0.6895   -3.1250   47.7744 H       1  ZINC000409064708    0.0700
     33 H33        -0.8398   -3.0588   49.5468 H       1  ZINC000409064708    0.1100
     34 H34        -1.0212    1.0247   45.2536 H       1  ZINC000409064708    0.1000
     35 H35        -2.4116    1.5174   46.2498 H       1  ZINC000409064708    0.0800
     36 H36        -1.0197    2.6108   46.0613 H       1  ZINC000409064708    0.0800
     37 H37         0.9165    4.2572   51.0390 H       1  ZINC000409064708    0.1600
     38 H38        -1.2578    6.4384   51.3793 H       1  ZINC000409064708    0.1300
     39 H39        -2.4427    7.3968   53.3061 H       1  ZINC000409064708    0.1400
     40 H40        -2.5074    4.6652   56.9500 H       1  ZINC000409064708    0.0800
     41 H41        -3.7581    5.8459   57.4079 H       1  ZINC000409064708    0.0800
     42 H42        -3.9172    2.7219   57.1769 H       1  ZINC000409064708    0.1300
     43 H43        -5.6404    1.2911   56.1547 H       1  ZINC000409064708    0.1400
     44 H44        -7.0688    2.1769   54.3560 H       1  ZINC000409064708    0.1400
     45 H45        -5.0524    5.9311   54.6081 H       1  ZINC000409064708    0.1400
     46 H46        -1.7379    3.8178   55.5407 H       1  ZINC000409064708    0.1300
     47 H47        -0.5563    2.8408   53.6212 H       1  ZINC000409064708    0.1300
@<TRIPOS>BOND
     1     1     2    1
     2     1    31    1
     3     1    32    1
     4     1    33    1
     5     2     3    1
     6     3     4    2
     7     3     5    1
     8     5     6    1
     9     5     7    1
    10     5     8    1
    11     7    34    1
    12     7    35    1
    13     7    36    1
    14     8    29   am
    15     8     9   am
    16     9    10    2
    17     9    11    1
    18    11    12    1
    19    12    13    2
    20    12    29    1
    21    13    14    1
    22    13    37    1
    23    14    28   ar
    24    14    15   ar
    25    15    16   ar
    26    15    38    1
    27    16    17   ar
    28    16    39    1
    29    17    18    1
    30    17    27   ar
    31    18    19    1
    32    19    20    1
    33    19    40    1
    34    19    41    1
    35    20    26   ar
    36    20    21   ar
    37    21    22   ar
    38    21    42    1
    39    22    23   ar
    40    22    43    1
    41    23    24   ar
    42    23    44    1
    43    24    25    1
    44    24    26   ar
    45    26    45    1
    46    27    28   ar
    47    27    46    1
    48    28    47    1
    49    29    30    2
@<TRIPOS>SUBSTRUCTURE
     1 ZINC000409064708        1 TEMP              0 ****  ****    0 ROOT


##########                                Name:    ZINC000537799672
##########                DOCK_Rotatable_Bonds:                   9
##########                         Heavy_Atoms:                  29
##########                    Molecular_Weight:             401.478
##########                DOCK_Rotatable_Bonds:                   9
##########                       Formal_Charge:        -4.47035e-07
##########                     HBond_Acceptors:                   6
##########                        HBond_Donors:                   1
##########                         Heavy_Atoms:                  29
##########                          Grid_Score:          -29.882673
##########                     Grid_vdw_energy:          -29.390276
##########                      Grid_es_energy:           -0.492397
##########           Internal_energy_repulsive:           19.794634

@<TRIPOS>MOLECULE
ZINC000537799672
 57 59 1 0 0
SMALL
USER_CHARGES


@<TRIPOS>ATOM
      1 C1          1.3969    5.2742   52.1565 C.3     1  ZINC000537799672    0.0300
      2 O2          1.6978    4.7690   50.8540 O.3     1  ZINC000537799672   -0.3800
      3 C3          0.7206    3.8601   50.3430 C.3     1  ZINC000537799672    0.1200
      4 H4          0.5852    3.0388   51.0467 H       1  ZINC000537799672    0.0900
      5 C5         -0.5886    4.5827   50.1564 C.ar    1  ZINC000537799672   -0.1300
      6 C6         -1.7808    3.8913   50.2649 C.ar    1  ZINC000537799672   -0.0600
      7 C7         -2.9820    4.5530   50.0940 C.ar    1  ZINC000537799672   -0.1500
      8 C8         -2.9911    5.9089   49.8142 C.ar    1  ZINC000537799672    0.1000
      9 F9         -4.1648    6.5568   49.6473 F       1  ZINC000537799672   -0.1400
     10 C10        -1.7965    6.6005   49.7062 C.ar    1  ZINC000537799672   -0.1500
     11 C11        -0.5967    5.9378   49.8824 C.ar    1  ZINC000537799672   -0.0800
     12 C12         1.1935    3.3061   48.9975 C.3     1  ZINC000537799672    0.1600
     13 H13         2.1394    2.7816   49.1327 H       1  ZINC000537799672    0.1000
     14 C14         1.3863    4.4593   48.0106 C.3     1  ZINC000537799672   -0.1600
     15 N15         0.1903    2.3766   48.4723 N.am    1  ZINC000537799672   -0.7100
     16 C16         0.5705    1.3437   47.6947 C.2     1  ZINC000537799672    0.5600
     17 O17         1.7459    1.1824   47.4301 O.2     1  ZINC000537799672   -0.5400
     18 C18        -0.4421    0.4065   47.1632 C.ar    1  ZINC000537799672   -0.1400
     19 C19        -0.8335   -0.7024   47.9148 C.ar    1  ZINC000537799672   -0.0800
     20 C20        -1.7793   -1.5728   47.4132 C.ar    1  ZINC000537799672   -0.1300
     21 C21        -2.3391   -1.3485   46.1682 C.ar    1  ZINC000537799672   -0.0900
     22 C22        -1.9551   -0.2511   45.4177 C.ar    1  ZINC000537799672   -0.1100
     23 C23        -1.0150    0.6302   45.9101 C.ar    1  ZINC000537799672   -0.0300
     24 C24        -0.5984    1.8251   45.0917 C.3     1  ZINC000537799672    0.1100
     25 O25         0.5492    1.4896   44.3090 O.3     1  ZINC000537799672   -0.3800
     26 C26         0.9119    2.4870   43.3521 C.3     1  ZINC000537799672    0.0900
     27 C27         1.2525    3.7928   44.0770 C.3     1  ZINC000537799672   -0.1800
     28 C28         1.7152    4.8309   43.0515 C.3     1  ZINC000537799672    0.0600
     29 O29         2.8393    4.3200   42.3322 O.3     1  ZINC000537799672   -0.3800
     30 C30         2.5673    3.1253   41.5966 C.3     1  ZINC000537799672    0.0600
     31 C31         2.1388    2.0186   42.5637 C.3     1  ZINC000537799672   -0.1500
     32 H32         1.2535    4.4414   52.8449 H       1  ZINC000537799672    0.0500
     33 H33         2.2219    5.8956   52.5046 H       1  ZINC000537799672    0.0900
     34 H34         0.4857    5.8708   52.1132 H       1  ZINC000537799672    0.0400
     35 H35        -1.7734    2.8336   50.4831 H       1  ZINC000537799672    0.1300
     36 H36        -3.9132    4.0124   50.1782 H       1  ZINC000537799672    0.1400
     37 H37        -1.8025    7.6582   49.4878 H       1  ZINC000537799672    0.1400
     38 H38         0.3353    6.4771   49.7985 H       1  ZINC000537799672    0.1300
     39 H39         2.0612    5.1982   48.4426 H       1  ZINC000537799672    0.0700
     40 H40         1.8123    4.0765   47.0832 H       1  ZINC000537799672    0.0600
     41 H41         0.4229    4.9248   47.8030 H       1  ZINC000537799672    0.0700
     42 H42        -0.7475    2.5045   48.6844 H       1  ZINC000537799672    0.4000
     43 H43        -0.3967   -0.8790   48.8866 H       1  ZINC000537799672    0.1300
     44 H44        -2.0832   -2.4313   47.9939 H       1  ZINC000537799672    0.1300
     45 H45        -3.0788   -2.0330   45.7801 H       1  ZINC000537799672    0.1300
     46 H46        -2.3956   -0.0818   44.4463 H       1  ZINC000537799672    0.1400
     47 H47        -1.4157    2.1164   44.4319 H       1  ZINC000537799672    0.0800
     48 H48        -0.3552    2.6539   45.7565 H       1  ZINC000537799672    0.0800
     49 H49         0.0806    2.6547   42.6673 H       1  ZINC000537799672    0.0600
     50 H50         0.3682    4.1625   44.5961 H       1  ZINC000537799672    0.0800
     51 H51         2.0500    3.6119   44.7976 H       1  ZINC000537799672    0.0800
     52 H52         0.9032    5.0412   42.3553 H       1  ZINC000537799672    0.0500
     53 H53         1.9996    5.7487   43.5663 H       1  ZINC000537799672    0.1000
     54 H54         1.7664    3.3132   40.8814 H       1  ZINC000537799672    0.0500
     55 H55         3.4655    2.8143   41.0633 H       1  ZINC000537799672    0.1000
     56 H56         2.9543    1.8020   43.2537 H       1  ZINC000537799672    0.0800
     57 H57         1.8884    1.1195   42.0005 H       1  ZINC000537799672    0.0800
@<TRIPOS>BOND
     1     1     2    1
     2     1    32    1
     3     1    33    1
     4     1    34    1
     5     2     3    1
     6     3     4    1
     7     3     5    1
     8     3    12    1
     9     5    11   ar
    10     5     6   ar
    11     6     7   ar
    12     6    35    1
    13     7     8   ar
    14     7    36    1
    15     8     9    1
    16     8    10   ar
    17    10    11   ar
    18    10    37    1
    19    11    38    1
    20    12    13    1
    21    12    14    1
    22    12    15    1
    23    14    39    1
    24    14    40    1
    25    14    41    1
    26    15    16   am
    27    15    42    1
    28    16    17    2
    29    16    18    1
    30    18    23   ar
    31    18    19   ar
    32    19    20   ar
    33    19    43    1
    34    20    21   ar
    35    20    44    1
    36    21    22   ar
    37    21    45    1
    38    22    23   ar
    39    22    46    1
    40    23    24    1
    41    24    25    1
    42    24    47    1
    43    24    48    1
    44    25    26    1
    45    26    31    1
    46    26    27    1
    47    26    49    1
    48    27    28    1
    49    27    50    1
    50    27    51    1
    51    28    29    1
    52    28    52    1
    53    28    53    1
    54    29    30    1
    55    30    31    1
    56    30    54    1
    57    30    55    1
    58    31    56    1
    59    31    57    1
@<TRIPOS>SUBSTRUCTURE
     1 ZINC000537799672        1 TEMP              0 ****  ****    0 ROOT


##########                                Name:    ZINC000279452407
##########                DOCK_Rotatable_Bonds:                   6
##########                         Heavy_Atoms:                  24
##########                    Molecular_Weight:              375.47
##########                DOCK_Rotatable_Bonds:                   6
##########                       Formal_Charge:          0.00999929
##########                     HBond_Acceptors:                  10
##########                        HBond_Donors:                   3
##########                         Heavy_Atoms:                  24
##########                          Grid_Score:          -29.880756
##########                     Grid_vdw_energy:          -27.487118
##########                      Grid_es_energy:           -2.393638
##########           Internal_energy_repulsive:           28.439062

@<TRIPOS>MOLECULE
ZINC000279452407
 45 47 1 0 0
SMALL
USER_CHARGES


@<TRIPOS>ATOM
      1 C1         -1.8606    2.2717   48.4044 C.3     1  ZINC000279452407   -0.1600
      2 C2         -2.2970    0.9178   47.8407 C.3     1  ZINC000279452407    0.0600
      3 H3         -3.0727    1.0617   47.0886 H       1  ZINC000279452407    0.0700
      4 O4         -2.7926    0.0820   48.9021 O.3     1  ZINC000279452407   -0.3700
      5 C5         -2.4250   -1.2763   48.5763 C.3     1  ZINC000279452407    0.0500
      6 C6         -0.9937   -1.1362   47.9954 C.3     1  ZINC000279452407   -0.1400
      7 C7         -1.0920    0.1976   47.2180 C.3     1  ZINC000279452407    0.0700
      8 C8          0.1802    1.0157   47.4246 C.3     1  ZINC000279452407    0.1100
      9 N9          0.1300    2.1882   46.5349 N.am    1  ZINC000279452407   -0.6300
     10 C10         0.3742    3.4278   47.0043 C.2     1  ZINC000279452407    0.7200
     11 O11         0.6408    3.5913   48.1792 O.2     1  ZINC000279452407   -0.5800
     12 N12         0.3230    4.4860   46.1713 N.am    1  ZINC000279452407   -0.7500
     13 C13         0.5885    5.8333   46.6815 C.3     1  ZINC000279452407    0.2000
     14 C14        -0.5996    6.3130   47.4749 C.2     1  ZINC000279452407   -0.1700
     15 C15        -1.7226    6.8095   46.9538 C.2     1  ZINC000279452407   -0.1400
     16 C16        -2.6794    7.1855   47.8807 C.2     1  ZINC000279452407    0.0100
     17 C17        -2.3334    6.9945   49.1546 C.2     1  ZINC000279452407   -0.7900
     18 S18        -3.3412    7.3753   50.5490 S.o2    1  ZINC000279452407    2.7300
     19 N19        -4.1911    6.0057   50.9281 N.am    1  ZINC000279452407   -1.2500
     20 O20        -2.4535    7.6099   51.6336 O.2     1  ZINC000279452407   -0.9600
     21 O21        -4.2956    8.3300   50.1054 O.2     1  ZINC000279452407   -0.9500
     22 S22        -0.7205    6.2969   49.2295 S.3     1  ZINC000279452407    0.2500
     23 C23        -0.1947    1.9639   45.1172 C.3     1  ZINC000279452407    0.0700
     24 C24        -1.4734    1.1221   45.0389 C.3     1  ZINC000279452407    0.0400
     25 O25        -1.3119   -0.0551   45.8357 O.3     1  ZINC000279452407   -0.3600
     26 H26        -1.5719    2.9302   47.5852 H       1  ZINC000279452407    0.0700
     27 H27        -2.6873    2.7191   48.9562 H       1  ZINC000279452407    0.0600
     28 H28        -1.0116    2.1301   49.0732 H       1  ZINC000279452407    0.0800
     29 H29        -2.4163   -1.8967   49.4725 H       1  ZINC000279452407    0.1000
     30 H30        -3.1035   -1.6887   47.8296 H       1  ZINC000279452407    0.0700
     31 H31        -0.2542   -1.0700   48.7935 H       1  ZINC000279452407    0.1000
     32 H32        -0.7645   -1.9618   47.3216 H       1  ZINC000279452407    0.1000
     33 H33         0.2395    1.3452   48.4618 H       1  ZINC000279452407    0.1200
     34 H34         1.0508    0.4072   47.1799 H       1  ZINC000279452407    0.0800
     35 H35         0.1103    4.3555   45.2339 H       1  ZINC000279452407    0.4000
     36 H36         1.4692    5.8119   47.3233 H       1  ZINC000279452407    0.1000
     37 H37         0.7644    6.5103   45.8456 H       1  ZINC000279452407    0.0900
     38 H38        -1.8738    6.9107   45.8892 H       1  ZINC000279452407    0.1600
     39 H39        -3.6336    7.6025   47.5941 H       1  ZINC000279452407    0.1600
     40 H40        -4.7907    5.6108   50.2759 H       1  ZINC000279452407    0.4200
     41 H41        -4.0895    5.5983   51.8026 H       1  ZINC000279452407    0.4200
     42 H42        -0.3557    2.9216   44.6224 H       1  ZINC000279452407    0.0900
     43 H43         0.6244    1.4316   44.6336 H       1  ZINC000279452407    0.0900
     44 H44        -2.3154    1.7034   45.4148 H       1  ZINC000279452407    0.0600
     45 H45        -1.6595    0.8381   44.0032 H       1  ZINC000279452407    0.1100
@<TRIPOS>BOND
     1     1     2    1
     2     1    26    1
     3     1    27    1
     4     1    28    1
     5     2     3    1
     6     2     7    1
     7     2     4    1
     8     4     5    1
     9     5     6    1
    10     5    29    1
    11     5    30    1
    12     6     7    1
    13     6    31    1
    14     6    32    1
    15     7    25    1
    16     7     8    1
    17     8     9    1
    18     8    33    1
    19     8    34    1
    20     9    10   am
    21     9    23    1
    22    10    11    2
    23    10    12   am
    24    12    13    1
    25    12    35    1
    26    13    14    1
    27    13    36    1
    28    13    37    1
    29    14    22    1
    30    14    15    2
    31    15    16    1
    32    15    38    1
    33    16    17    2
    34    16    39    1
    35    17    18    1
    36    17    22    1
    37    18    19   am
    38    18    20    2
    39    18    21    2
    40    19    40    1
    41    19    41    1
    42    23    24    1
    43    23    42    1
    44    23    43    1
    45    24    25    1
    46    24    44    1
    47    24    45    1
@<TRIPOS>SUBSTRUCTURE
     1 ZINC000279452407        1 TEMP              0 ****  ****    0 ROOT


##########                                Name:    ZINC001579482641
##########                DOCK_Rotatable_Bonds:                   5
##########                         Heavy_Atoms:                  26
##########                    Molecular_Weight:             355.359
##########                DOCK_Rotatable_Bonds:                   5
##########                       Formal_Charge:                0.05
##########                     HBond_Acceptors:                  11
##########                        HBond_Donors:                   1
##########                         Heavy_Atoms:                  26
##########                          Grid_Score:          -29.877066
##########                     Grid_vdw_energy:          -26.957777
##########                      Grid_es_energy:           -2.919288
##########           Internal_energy_repulsive:           12.029594

@<TRIPOS>MOLECULE
ZINC001579482641
 43 46 1 0 0
SMALL
USER_CHARGES


@<TRIPOS>ATOM
      1 C1         -9.0057   -0.8300   62.2011 C.3     1  ZINC001579482641    0.0300
      2 O2        -10.2138   -0.6681   62.9901 O.3     1  ZINC001579482641   -0.3300
      3 C3        -11.2614   -0.0710   62.3891 C.2     1  ZINC001579482641    0.5300
      4 O4        -12.0583    0.5657   63.0491 O.2     1  ZINC001579482641   -0.4900
      5 C5        -11.4410   -0.1904   60.9276 C.ar    1  ZINC001579482641    0.0900
      6 C6        -10.9821    0.8289   60.0915 C.ar    1  ZINC001579482641   -0.0800
      7 C7        -11.1527    0.7124   58.7240 C.ar    1  ZINC001579482641   -0.1200
      8 C8        -11.7813   -0.4269   58.2269 C.ar    1  ZINC001579482641    0.1100
      9 N9        -11.9728   -0.5852   56.8611 N.3     1  ZINC001579482641   -0.4600
     10 C10       -12.8262    0.5003   56.3138 C.3     1  ZINC001579482641    0.0400
     11 C11       -12.5008    0.4776   54.7992 C.3     1  ZINC001579482641   -0.1100
     12 C12       -10.9858    0.1709   54.7756 C.3     1  ZINC001579482641   -0.0100
     13 H13       -10.4145    1.0937   54.6745 H       1  ZINC001579482641    0.0900
     14 C14       -10.6604   -0.7712   53.6453 C.2     1  ZINC001579482641    0.1800
     15 N15       -10.8574   -2.0614   53.6327 N.2     1  ZINC001579482641   -0.2600
     16 N16       -10.4643   -2.5484   52.5093 N.2     1  ZINC001579482641   -0.2900
     17 C17        -9.9987   -1.5909   51.7542 C.2     1  ZINC001579482641    0.1500
     18 N18       -10.1145   -0.4351   52.4516 N.pl3   1  ZINC001579482641   -0.4800
     19 C19        -9.7214    0.9048   52.0084 C.3     1  ZINC001579482641    0.0700
     20 C20       -10.6892   -0.4954   56.1319 C.3     1  ZINC001579482641    0.0600
     21 C21       -12.2184   -1.4140   59.1265 C.ar    1  ZINC001579482641    0.2300
     22 C22       -12.8895   -2.6329   58.6118 C.2     1  ZINC001579482641    0.2100
     23 N23       -14.0176   -3.1556   59.0504 N.2     1  ZINC001579482641   -0.2600
     24 N24       -14.2653   -4.2062   58.3465 N.pl3   1  ZINC001579482641   -0.2300
     25 N25       -13.3304   -4.3661   57.4761 N.2     1  ZINC001579482641   -0.0500
     26 N26       -12.4698   -3.4142   57.6062 N.2     1  ZINC001579482641   -0.2000
     27 N27       -12.0322   -1.2684   60.4259 N.ar    1  ZINC001579482641   -0.4000
     28 H28        -8.6436    0.1486   61.8859 H       1  ZINC001579482641    0.0700
     29 H29        -8.2422   -1.3234   62.8027 H       1  ZINC001579482641    0.1100
     30 H30        -9.2242   -1.4368   61.3224 H       1  ZINC001579482641    0.0700
     31 H31       -10.4989    1.7002   60.5085 H       1  ZINC001579482641    0.1600
     32 H32       -10.8067    1.4876   58.0564 H       1  ZINC001579482641    0.1600
     33 H33       -13.8808    0.2835   56.4840 H       1  ZINC001579482641    0.1000
     34 H34       -12.5544    1.4609   56.7514 H       1  ZINC001579482641    0.0600
     35 H35       -13.0617   -0.3100   54.2959 H       1  ZINC001579482641    0.1000
     36 H36       -12.7051    1.4478   54.3462 H       1  ZINC001579482641    0.0800
     37 H37        -9.5990   -1.6994   50.7567 H       1  ZINC001579482641    0.2200
     38 H38       -10.5614    1.3814   51.5031 H       1  ZINC001579482641    0.0800
     39 H39        -9.4306    1.5025   52.8723 H       1  ZINC001579482641    0.0900
     40 H40        -8.8797    0.8275   51.3202 H       1  ZINC001579482641    0.0900
     41 H41        -9.9826    0.1120   56.6974 H       1  ZINC001579482641    0.0600
     42 H42       -10.2813   -1.4937   55.9738 H       1  ZINC001579482641    0.1000
     43 H43       -15.0353   -4.7861   58.4557 H       1  ZINC001579482641    0.4800
@<TRIPOS>BOND
     1     1     2    1
     2     1    28    1
     3     1    29    1
     4     1    30    1
     5     2     3    1
     6     3     4    2
     7     3     5    1
     8     5    27   ar
     9     5     6   ar
    10     6     7   ar
    11     6    31    1
    12     7     8   ar
    13     7    32    1
    14     8     9    1
    15     8    21   ar
    16     9    20    1
    17     9    10    1
    18    10    11    1
    19    10    33    1
    20    10    34    1
    21    11    12    1
    22    11    35    1
    23    11    36    1
    24    12    13    1
    25    12    14    1
    26    12    20    1
    27    14    18    1
    28    14    15    2
    29    15    16    1
    30    16    17    2
    31    17    18    1
    32    17    37    1
    33    18    19    1
    34    19    38    1
    35    19    39    1
    36    19    40    1
    37    20    41    1
    38    20    42    1
    39    21    22    1
    40    21    27   ar
    41    22    26    1
    42    22    23    2
    43    23    24    1
    44    24    25    1
    45    24    43    1
    46    25    26    2
@<TRIPOS>SUBSTRUCTURE
     1 ZINC001579482641        1 TEMP              0 ****  ****    0 ROOT


##########                                Name:    ZINC000624498741
##########                DOCK_Rotatable_Bonds:                   7
##########                         Heavy_Atoms:                  27
##########                    Molecular_Weight:             379.339
##########                DOCK_Rotatable_Bonds:                   7
##########                       Formal_Charge:           0.0300003
##########                     HBond_Acceptors:                   9
##########                        HBond_Donors:                   0
##########                         Heavy_Atoms:                  27
##########                          Grid_Score:          -29.870464
##########                     Grid_vdw_energy:          -29.240921
##########                      Grid_es_energy:           -0.629544
##########           Internal_energy_repulsive:            7.935275

@<TRIPOS>MOLECULE
ZINC000624498741
 43 45 1 0 0
SMALL
USER_CHARGES


@<TRIPOS>ATOM
      1 C1        -14.7007   -3.6594   59.4366 C.3     1  ZINC000624498741   -0.1100
      2 C2        -13.4494   -2.9315   59.0174 C.ar    1  ZINC000624498741   -0.0900
      3 C3        -13.0670   -2.9270   57.6942 C.ar    1  ZINC000624498741   -0.0400
      4 C4        -11.9071   -2.2517   57.3065 C.ar    1  ZINC000624498741   -0.0500
      5 C5        -11.4938   -2.2439   55.8890 C.2     1  ZINC000624498741    0.2300
      6 N6        -11.2099   -1.1817   55.1550 N.2     1  ZINC000624498741   -0.4700
      7 C7        -10.8874   -1.6583   53.9426 C.2     1  ZINC000624498741    0.1800
      8 C8        -10.4831   -0.8398   52.7436 C.3     1  ZINC000624498741   -0.0300
      9 C9         -9.7677    0.4295   53.2104 C.3     1  ZINC000624498741   -0.1300
     10 C10        -9.2623    1.2070   51.9934 C.3     1  ZINC000624498741    0.0900
     11 N11        -8.5282    2.3928   52.4417 N.am    1  ZINC000624498741   -0.5000
     12 C12        -7.2052    2.2940   52.7298 C.2     1  ZINC000624498741    0.1300
     13 C13        -6.5059    3.3755   53.1461 C.2     1  ZINC000624498741   -0.2300
     14 C14        -7.1483    4.6140   53.2830 C.2     1  ZINC000624498741   -0.0200
     15 C15        -8.4775    4.7115   52.9928 C.2     1  ZINC000624498741   -0.2400
     16 C16        -9.1721    3.5698   52.5581 C.2     1  ZINC000624498741    0.5100
     17 O17       -10.3618    3.6429   52.2949 O.2     1  ZINC000624498741   -0.5500
     18 N18       -10.9861   -2.9541   53.9897 N.2     1  ZINC000624498741   -0.3700
     19 O19       -11.3273   -3.3143   55.0963 O.3     1  ZINC000624498741    0.0900
     20 C20       -11.1398   -1.5834   58.2633 C.ar    1  ZINC000624498741   -0.0200
     21 C21       -11.5292   -1.5927   59.5849 C.ar    1  ZINC000624498741   -0.1900
     22 C22       -12.6861   -2.2611   59.9655 C.ar    1  ZINC000624498741    0.1300
     23 O23       -13.0664   -2.2679   61.2689 O.3     1  ZINC000624498741   -0.3000
     24 C24       -13.2520   -0.9980   61.8972 C.3     1  ZINC000624498741    0.6000
     25 F25       -13.6876   -0.0672   60.9480 F       1  ZINC000624498741   -0.1600
     26 F26       -14.2101   -1.1144   62.9100 F       1  ZINC000624498741   -0.1300
     27 F27       -12.0401   -0.5691   62.4489 F       1  ZINC000624498741   -0.1600
     28 H28       -15.5524   -2.9818   59.3772 H       1  ZINC000624498741    0.0800
     29 H29       -14.8658   -4.5093   58.7744 H       1  ZINC000624498741    0.0800
     30 H30       -14.5890   -4.0135   60.4614 H       1  ZINC000624498741    0.0800
     31 H31       -13.6628   -3.4452   56.9574 H       1  ZINC000624498741    0.1500
     32 H32        -9.8122   -1.4243   52.1141 H       1  ZINC000624498741    0.1000
     33 H33       -11.3712   -0.5675   52.1733 H       1  ZINC000624498741    0.1000
     34 H34       -10.4622    1.0511   53.7757 H       1  ZINC000624498741    0.0800
     35 H35        -8.9236    0.1586   53.8445 H       1  ZINC000624498741    0.0800
     36 H36        -8.6009    0.5711   51.4051 H       1  ZINC000624498741    0.1100
     37 H37       -10.1101    1.5145   51.3810 H       1  ZINC000624498741    0.1000
     38 H38        -6.7055    1.3423   52.6259 H       1  ZINC000624498741    0.1600
     39 H39        -5.4539    3.2843   53.3730 H       1  ZINC000624498741    0.1500
     40 H40        -6.5969    5.4813   53.6151 H       1  ZINC000624498741    0.1400
     41 H41        -8.9898    5.6571   53.0921 H       1  ZINC000624498741    0.1500
     42 H42       -10.2422   -1.0605   57.9677 H       1  ZINC000624498741    0.1500
     43 H43       -10.9362   -1.0765   60.3255 H       1  ZINC000624498741    0.1500
@<TRIPOS>BOND
     1     1     2    1
     2     1    28    1
     3     1    29    1
     4     1    30    1
     5     2    22   ar
     6     2     3   ar
     7     3     4   ar
     8     3    31    1
     9     4     5    1
    10     4    20   ar
    11     5    19    1
    12     5     6    2
    13     6     7    1
    14     7     8    1
    15     7    18    2
    16     8     9    1
    17     8    32    1
    18     8    33    1
    19     9    10    1
    20     9    34    1
    21     9    35    1
    22    10    11    1
    23    10    36    1
    24    10    37    1
    25    11    16   am
    26    11    12    1
    27    12    13    2
    28    12    38    1
    29    13    14    1
    30    13    39    1
    31    14    15    2
    32    14    40    1
    33    15    16    1
    34    15    41    1
    35    16    17    2
    36    18    19    1
    37    20    21   ar
    38    20    42    1
    39    21    22   ar
    40    21    43    1
    41    22    23    1
    42    23    24    1
    43    24    25    1
    44    24    26    1
    45    24    27    1
@<TRIPOS>SUBSTRUCTURE
     1 ZINC000624498741        1 TEMP              0 ****  ****    0 ROOT


##########                                Name:    ZINC000967287417
##########                DOCK_Rotatable_Bonds:                   7
##########                         Heavy_Atoms:                  25
##########                    Molecular_Weight:             347.414
##########                DOCK_Rotatable_Bonds:                   7
##########                       Formal_Charge:          -0.0200002
##########                     HBond_Acceptors:                   7
##########                        HBond_Donors:                   1
##########                         Heavy_Atoms:                  25
##########                          Grid_Score:          -29.867260
##########                     Grid_vdw_energy:          -29.938288
##########                      Grid_es_energy:            0.071029
##########           Internal_energy_repulsive:            6.753836

@<TRIPOS>MOLECULE
ZINC000967287417
 50 52 1 0 0
SMALL
USER_CHARGES


@<TRIPOS>ATOM
      1 C1         -4.7726    1.6820   56.5885 C.3     1  ZINC000967287417    0.0300
      2 O2         -5.9460    1.1620   57.2168 O.3     1  ZINC000967287417   -0.3900
      3 C3         -7.1033    1.9853   57.0588 C.3     1  ZINC000967287417    0.1400
      4 C4         -8.2834    1.3262   57.7251 C.2     1  ZINC000967287417    0.0100
      5 C5         -8.2420    0.6113   58.8711 C.2     1  ZINC000967287417   -0.1900
      6 C6         -9.5512    0.1799   59.1363 C.2     1  ZINC000967287417   -0.1200
      7 C7        -10.3347    0.6592   58.1260 C.2     1  ZINC000967287417   -0.0700
      8 C8        -11.7803    0.4559   57.9860 C.2     1  ZINC000967287417    0.6100
      9 O9        -12.4665    1.3102   57.4564 O.2     1  ZINC000967287417   -0.5200
     10 N10       -12.3491   -0.6769   58.4439 N.am    1  ZINC000967287417   -0.7000
     11 C11       -13.7929   -0.8807   58.3025 C.3     1  ZINC000967287417    0.1600
     12 H12       -14.3140    0.0553   58.5035 H       1  ZINC000967287417    0.1000
     13 C13       -14.1064   -1.3441   56.8780 C.3     1  ZINC000967287417    0.0400
     14 N14       -13.4206   -2.6154   56.6135 N.3     1  ZINC000967287417   -0.5300
     15 C15       -13.5860   -3.0208   55.2112 C.3     1  ZINC000967287417    0.1300
     16 C16       -12.3234   -2.7144   54.4476 C.2     1  ZINC000967287417    0.0200
     17 N17       -11.1356   -3.1935   54.6803 N.2     1  ZINC000967287417   -0.3500
     18 O18       -10.3205   -2.7627   53.8978 O.3     1  ZINC000967287417    0.1000
     19 C19       -10.8790   -1.9178   53.0198 C.2     1  ZINC000967287417   -0.0300
     20 C20       -10.1814   -1.1878   51.9011 C.3     1  ZINC000967287417   -0.0800
     21 C21       -12.1954   -1.8545   53.3327 C.2     1  ZINC000967287417   -0.2400
     22 C22       -13.8857   -3.6691   57.5243 C.3     1  ZINC000967287417    0.0500
     23 C23       -13.5658   -3.2751   58.9680 C.3     1  ZINC000967287417   -0.1100
     24 C24       -14.2582   -1.9486   59.2962 C.3     1  ZINC000967287417   -0.1000
     25 H25       -15.3384   -2.0726   59.2185 H       1  ZINC000967287417    0.0900
     26 C26       -13.8938   -1.5199   60.7191 C.3     1  ZINC000967287417   -0.1500
     27 O27        -9.5470    1.3573   57.2820 O.3     1  ZINC000967287417   -0.1600
     28 H28        -4.5343    2.6569   57.0140 H       1  ZINC000967287417    0.0500
     29 H29        -3.9389    0.9996   56.7543 H       1  ZINC000967287417    0.0900
     30 H30        -4.9495    1.7862   55.5180 H       1  ZINC000967287417    0.0500
     31 H31        -6.9231    2.9573   57.5178 H       1  ZINC000967287417    0.0900
     32 H32        -7.3126    2.1178   55.9973 H       1  ZINC000967287417    0.0700
     33 H33        -7.3665    0.4098   59.4703 H       1  ZINC000967287417    0.1600
     34 H34        -9.8757   -0.4160   59.9766 H       1  ZINC000967287417    0.1600
     35 H35       -11.8024   -1.3573   58.8672 H       1  ZINC000967287417    0.4100
     36 H36       -15.1821   -1.4822   56.7694 H       1  ZINC000967287417    0.0500
     37 H37       -13.7635   -0.5918   56.1676 H       1  ZINC000967287417    0.0900
     38 H38       -13.7887   -4.0907   55.1638 H       1  ZINC000967287417    0.0600
     39 H39       -14.4190   -2.4732   54.7704 H       1  ZINC000967287417    0.0900
     40 H40        -9.1230   -1.4479   51.9019 H       1  ZINC000967287417    0.0800
     41 H41       -10.6254   -1.4744   50.9478 H       1  ZINC000967287417    0.0900
     42 H42       -10.2914   -0.1128   52.0447 H       1  ZINC000967287417    0.0900
     43 H43       -12.9673   -1.2758   52.8472 H       1  ZINC000967287417    0.1700
     44 H44       -14.9625   -3.7964   57.4127 H       1  ZINC000967287417    0.0400
     45 H45       -13.3827   -4.6056   57.2833 H       1  ZINC000967287417    0.0800
     46 H46       -13.9251   -4.0503   59.6450 H       1  ZINC000967287417    0.0700
     47 H47       -12.4879   -3.1613   59.0838 H       1  ZINC000967287417    0.0700
     48 H48       -12.8138   -1.3939   60.7952 H       1  ZINC000967287417    0.0600
     49 H49       -14.3870   -0.5760   60.9516 H       1  ZINC000967287417    0.0600
     50 H50       -14.2211   -2.2841   61.4239 H       1  ZINC000967287417    0.0600
@<TRIPOS>BOND
     1     1     2    1
     2     1    28    1
     3     1    29    1
     4     1    30    1
     5     2     3    1
     6     3     4    1
     7     3    31    1
     8     3    32    1
     9     4    27    1
    10     4     5    2
    11     5     6    1
    12     5    33    1
    13     6     7    2
    14     6    34    1
    15     7     8    1
    16     7    27    1
    17     8     9    2
    18     8    10   am
    19    10    11    1
    20    10    35    1
    21    11    12    1
    22    11    24    1
    23    11    13    1
    24    13    14    1
    25    13    36    1
    26    13    37    1
    27    14    15    1
    28    14    22    1
    29    15    16    1
    30    15    38    1
    31    15    39    1
    32    16    21    1
    33    16    17    2
    34    17    18    1
    35    18    19    1
    36    19    20    1
    37    19    21    2
    38    20    40    1
    39    20    41    1
    40    20    42    1
    41    21    43    1
    42    22    23    1
    43    22    44    1
    44    22    45    1
    45    23    24    1
    46    23    46    1
    47    23    47    1
    48    24    25    1
    49    24    26    1
    50    26    48    1
    51    26    49    1
    52    26    50    1
@<TRIPOS>SUBSTRUCTURE
     1 ZINC000967287417        1 TEMP              0 ****  ****    0 ROOT


##########                                Name:    ZINC000534890536
##########                DOCK_Rotatable_Bonds:                   6
##########                         Heavy_Atoms:                  30
##########                    Molecular_Weight:             411.476
##########                DOCK_Rotatable_Bonds:                   6
##########                       Formal_Charge:          0.00999957
##########                     HBond_Acceptors:                   7
##########                        HBond_Donors:                   1
##########                         Heavy_Atoms:                  30
##########                          Grid_Score:          -29.829798
##########                     Grid_vdw_energy:          -29.658804
##########                      Grid_es_energy:           -0.170994
##########           Internal_energy_repulsive:           16.025957

@<TRIPOS>MOLECULE
ZINC000534890536
 56 59 1 0 0
SMALL
USER_CHARGES


@<TRIPOS>ATOM
      1 C1         -7.9730    1.7733   58.7473 C.3     1  ZINC000534890536    0.0300
      2 O2         -6.8544    1.2042   58.0638 O.3     1  ZINC000534890536   -0.3200
      3 C3         -6.1289    2.0348   57.2697 C.ar    1  ZINC000534890536    0.1300
      4 C4         -6.4858    3.3702   57.1513 C.ar    1  ZINC000534890536   -0.2100
      5 C5         -5.7463    4.2125   56.3437 C.ar    1  ZINC000534890536   -0.0700
      6 C6         -4.6517    3.7256   55.6535 C.ar    1  ZINC000534890536   -0.1100
      7 C7         -3.8472    4.6465   54.7728 C.3     1  ZINC000534890536   -0.0600
      8 H8         -2.9205    4.9428   55.2642 H       1  ZINC000534890536    0.0900
      9 C9         -4.6797    5.8890   54.3598 C.3     1  ZINC000534890536   -0.1200
     10 C10        -4.0363    6.3066   53.0207 C.3     1  ZINC000534890536    0.1000
     11 N11        -3.3530    5.1237   52.4771 N.am    1  ZINC000534890536   -0.6400
     12 C12        -2.6504    5.0815   51.3276 C.2     1  ZINC000534890536    0.7300
     13 O13        -2.5412    6.0815   50.6447 O.2     1  ZINC000534890536   -0.5700
     14 N14        -2.0689    3.9307   50.9351 N.am    1  ZINC000534890536   -0.7300
     15 C15        -1.3067    3.8845   49.6848 C.3     1  ZINC000534890536    0.1600
     16 H16        -1.5540    4.7551   49.0776 H       1  ZINC000534890536    0.1200
     17 C17         0.1908    3.8942   50.0016 C.3     1  ZINC000534890536   -0.1300
     18 C18         0.9604    3.5695   48.7157 C.3     1  ZINC000534890536   -0.1300
     19 C19         0.6735    2.1189   48.3264 C.3     1  ZINC000534890536    0.1100
     20 N20        -0.7624    1.8692   48.3112 N.am    1  ZINC000534890536   -0.5600
     21 C21        -1.2274    0.7546   47.6020 C.ar    1  ZINC000534890536    0.1000
     22 C22        -1.2451   -0.4953   48.2046 C.ar    1  ZINC000534890536   -0.0800
     23 C23        -1.7048   -1.5932   47.5028 C.ar    1  ZINC000534890536   -0.1200
     24 C24        -2.1467   -1.4488   46.2009 C.ar    1  ZINC000534890536   -0.0800
     25 C25        -2.1310   -0.2052   45.5957 C.ar    1  ZINC000534890536   -0.1500
     26 C26        -1.6777    0.8988   46.2940 C.ar    1  ZINC000534890536    0.1100
     27 F27        -1.6626    2.1137   45.7032 F       1  ZINC000534890536   -0.1300
     28 C28        -1.6596    2.6342   48.9314 C.2     1  ZINC000534890536    0.5000
     29 O29        -2.8261    2.3050   48.8835 O.2     1  ZINC000534890536   -0.5100
     30 C30        -3.5618    3.9914   53.3983 C.3     1  ZINC000534890536    0.1300
     31 C31        -4.2937    2.3951   55.7702 C.ar    1  ZINC000534890536   -0.0700
     32 C32        -5.0268    1.5499   56.5805 C.ar    1  ZINC000534890536   -0.1500
     33 H33        -7.6301    2.5766   59.3994 H       1  ZINC000534890536    0.0600
     34 H34        -8.6789    2.1729   58.0191 H       1  ZINC000534890536    0.0600
     35 H35        -8.4633    1.0046   59.3446 H       1  ZINC000534890536    0.1000
     36 H36        -7.3410    3.7509   57.6896 H       1  ZINC000534890536    0.1300
     37 H37        -6.0236    5.2522   56.2511 H       1  ZINC000534890536    0.1300
     38 H38        -5.7268    5.6217   54.2177 H       1  ZINC000534890536    0.0800
     39 H39        -4.5801    6.6832   55.0997 H       1  ZINC000534890536    0.0900
     40 H40        -4.8078    6.6405   52.3269 H       1  ZINC000534890536    0.0700
     41 H41        -3.3152    7.1064   53.1893 H       1  ZINC000534890536    0.0700
     42 H42        -2.1549    3.1332   51.4805 H       1  ZINC000534890536    0.4000
     43 H43         0.4827    4.8795   50.3651 H       1  ZINC000534890536    0.0900
     44 H44         0.4104    3.1429   50.7603 H       1  ZINC000534890536    0.0800
     45 H45         0.6334    4.2343   47.9161 H       1  ZINC000534890536    0.0800
     46 H46         2.0292    3.6977   48.8868 H       1  ZINC000534890536    0.1000
     47 H47         1.0836    1.9238   47.3354 H       1  ZINC000534890536    0.0800
     48 H48         1.1475    1.4521   49.0467 H       1  ZINC000534890536    0.0700
     49 H49        -0.8997   -0.6099   49.2215 H       1  ZINC000534890536    0.1300
     50 H50        -1.7186   -2.5659   47.9719 H       1  ZINC000534890536    0.1300
     51 H51        -2.5047   -2.3091   45.6549 H       1  ZINC000534890536    0.1400
     52 H52        -2.4769   -0.0957   44.5784 H       1  ZINC000534890536    0.1400
     53 H53        -2.6649    3.3741   53.4501 H       1  ZINC000534890536    0.0800
     54 H54        -4.4161    3.3947   53.0785 H       1  ZINC000534890536    0.0700
     55 H55        -3.4381    2.0173   55.2303 H       1  ZINC000534890536    0.1300
     56 H56        -4.7468    0.5108   56.6714 H       1  ZINC000534890536    0.1300
@<TRIPOS>BOND
     1     1     2    1
     2     1    33    1
     3     1    34    1
     4     1    35    1
     5     2     3    1
     6     3    32   ar
     7     3     4   ar
     8     4     5   ar
     9     4    36    1
    10     5     6   ar
    11     5    37    1
    12     6     7    1
    13     6    31   ar
    14     7     8    1
    15     7    30    1
    16     7     9    1
    17     9    10    1
    18     9    38    1
    19     9    39    1
    20    10    11    1
    21    10    40    1
    22    10    41    1
    23    11    12   am
    24    11    30    1
    25    12    13    2
    26    12    14   am
    27    14    15    1
    28    14    42    1
    29    15    16    1
    30    15    28    1
    31    15    17    1
    32    17    18    1
    33    17    43    1
    34    17    44    1
    35    18    19    1
    36    18    45    1
    37    18    46    1
    38    19    20    1
    39    19    47    1
    40    19    48    1
    41    20    21    1
    42    20    28   am
    43    21    26   ar
    44    21    22   ar
    45    22    23   ar
    46    22    49    1
    47    23    24   ar
    48    23    50    1
    49    24    25   ar
    50    24    51    1
    51    25    26   ar
    52    25    52    1
    53    26    27    1
    54    28    29    2
    55    30    53    1
    56    30    54    1
    57    31    32   ar
    58    31    55    1
    59    32    56    1
@<TRIPOS>SUBSTRUCTURE
     1 ZINC000534890536        1 TEMP              0 ****  ****    0 ROOT


##########                                Name:    ZINC000549659617
##########                DOCK_Rotatable_Bonds:                   9
##########                         Heavy_Atoms:                  28
##########                    Molecular_Weight:              418.48
##########                DOCK_Rotatable_Bonds:                   9
##########                       Formal_Charge:          0.00999956
##########                     HBond_Acceptors:                   9
##########                        HBond_Donors:                   1
##########                         Heavy_Atoms:                  28
##########                          Grid_Score:          -29.829586
##########                     Grid_vdw_energy:          -28.955341
##########                      Grid_es_energy:           -0.874245
##########           Internal_energy_repulsive:           24.555416

@<TRIPOS>MOLECULE
ZINC000549659617
 53 55 1 0 0
SMALL
USER_CHARGES


@<TRIPOS>ATOM
      1 C1          1.2492    1.6917   42.9443 C.3     1  ZINC000549659617   -0.1500
      2 C2          1.0558    2.7401   44.0418 C.3     1  ZINC000549659617   -0.1500
      3 C3          1.3187    2.1029   45.4077 C.3     1  ZINC000549659617    0.1100
      4 N4          0.3975    2.6693   46.3961 N.am    1  ZINC000549659617   -0.6100
      5 C5          0.5115    3.9618   46.7606 C.2     1  ZINC000549659617    0.7100
      6 O6          1.3797    4.6575   46.2703 O.2     1  ZINC000549659617   -0.5700
      7 N7         -0.3372    4.4833   47.6686 N.am    1  ZINC000549659617   -0.7400
      8 C8         -0.2122    5.8878   48.0660 C.3     1  ZINC000549659617    0.2300
      9 H9          0.5726    6.3634   47.4779 H       1  ZINC000549659617    0.1100
     10 C10        -1.5202    6.5964   47.8246 C.ar    1  ZINC000549659617   -0.0900
     11 C11        -1.8145    7.0950   46.5695 C.ar    1  ZINC000549659617   -0.0800
     12 C12        -3.0144    7.7451   46.3479 C.ar    1  ZINC000549659617   -0.1100
     13 C13        -3.9198    7.8959   47.3814 C.ar    1  ZINC000549659617   -0.0700
     14 C14        -3.6257    7.3964   48.6366 C.ar    1  ZINC000549659617   -0.1800
     15 C15        -4.6126    7.5613   49.7634 C.3     1  ZINC000549659617    0.5100
     16 F16        -4.3552    8.7602   50.4371 F       1  ZINC000549659617   -0.1800
     17 F17        -5.9119    7.5872   49.2453 F       1  ZINC000549659617   -0.1700
     18 F18        -4.4869    6.4897   50.6539 F       1  ZINC000549659617   -0.1700
     19 C19        -2.4280    6.7428   48.8570 C.ar    1  ZINC000549659617   -0.0500
     20 C20         0.1444    5.9676   49.5518 C.3     1  ZINC000549659617   -0.1700
     21 C21        -0.3091    4.8151   50.4500 C.3     1  ZINC000549659617   -0.1700
     22 C22         1.1696    4.9659   50.0870 C.3     1  ZINC000549659617   -0.1800
     23 C23        -0.6477    1.8307   46.9882 C.3     1  ZINC000549659617    0.1700
     24 H24        -1.2775    2.4289   47.6466 H       1  ZINC000549659617    0.1100
     25 C25        -0.0107    0.6731   47.7769 C.3     1  ZINC000549659617   -0.1400
     26 C26        -1.1022   -0.3683   48.0945 C.3     1  ZINC000549659617   -0.5900
     27 S27        -2.3285   -0.1983   46.7480 S.o2    1  ZINC000549659617    2.3900
     28 O28        -2.2945   -1.3602   45.9306 O.2     1  ZINC000549659617   -0.9300
     29 O29        -3.5635    0.2500   47.2896 O.2     1  ZINC000549659617   -0.9400
     30 C30        -1.5084    1.1869   45.8709 C.3     1  ZINC000549659617   -0.6100
     31 H31         1.0618    2.1455   41.9712 H       1  ZINC000549659617    0.0600
     32 H32         2.2710    1.3141   42.9785 H       1  ZINC000549659617    0.0600
     33 H33         0.5522    0.8684   43.1015 H       1  ZINC000549659617    0.0600
     34 H34         1.7528    3.5633   43.8846 H       1  ZINC000549659617    0.0700
     35 H35         0.0338    3.1176   44.0076 H       1  ZINC000549659617    0.0700
     36 H36         1.1641    1.0259   45.3421 H       1  ZINC000549659617    0.0800
     37 H37         2.3460    2.3047   45.7112 H       1  ZINC000549659617    0.0900
     38 H38        -1.0307    3.9286   48.0589 H       1  ZINC000549659617    0.4000
     39 H39        -1.1071    6.9771   45.7621 H       1  ZINC000549659617    0.1300
     40 H40        -3.2441    8.1354   45.3675 H       1  ZINC000549659617    0.1400
     41 H41        -4.8568    8.4044   47.2085 H       1  ZINC000549659617    0.1400
     42 H42        -2.1983    6.3525   49.8374 H       1  ZINC000549659617    0.1400
     43 H43         0.1480    6.9694   49.9812 H       1  ZINC000549659617    0.1100
     44 H44        -0.6041    5.0586   51.4707 H       1  ZINC000549659617    0.0900
     45 H45        -0.8615    3.9999   49.9825 H       1  ZINC000549659617    0.0900
     46 H46         1.5899    4.2500   49.3806 H       1  ZINC000549659617    0.1200
     47 H47         1.8474    5.3085   50.8688 H       1  ZINC000549659617    0.0900
     48 H48         0.7743    0.2103   47.1788 H       1  ZINC000549659617    0.1100
     49 H49         0.4148    1.0529   48.7058 H       1  ZINC000549659617    0.0900
     50 H50        -0.6784   -1.3726   48.0959 H       1  ZINC000549659617    0.1400
     51 H51        -1.5646   -0.1505   49.0572 H       1  ZINC000549659617    0.1400
     52 H52        -2.2451    1.8952   45.4919 H       1  ZINC000549659617    0.1400
     53 H53        -0.8776    0.8142   45.0638 H       1  ZINC000549659617    0.1600
@<TRIPOS>BOND
     1     1     2    1
     2     1    31    1
     3     1    32    1
     4     1    33    1
     5     2     3    1
     6     2    34    1
     7     2    35    1
     8     3     4    1
     9     3    36    1
    10     3    37    1
    11     4     5   am
    12     4    23    1
    13     5     6    2
    14     5     7   am
    15     7     8    1
    16     7    38    1
    17     8     9    1
    18     8    10    1
    19     8    20    1
    20    10    19   ar
    21    10    11   ar
    22    11    12   ar
    23    11    39    1
    24    12    13   ar
    25    12    40    1
    26    13    14   ar
    27    13    41    1
    28    14    15    1
    29    14    19   ar
    30    15    16    1
    31    15    17    1
    32    15    18    1
    33    19    42    1
    34    20    22    1
    35    20    21    1
    36    20    43    1
    37    21    22    1
    38    21    44    1
    39    21    45    1
    40    22    46    1
    41    22    47    1
    42    23    24    1
    43    23    30    1
    44    23    25    1
    45    25    26    1
    46    25    48    1
    47    25    49    1
    48    26    27    1
    49    26    50    1
    50    26    51    1
    51    27    28    2
    52    27    29    2
    53    27    30    1
    54    30    52    1
    55    30    53    1
@<TRIPOS>SUBSTRUCTURE
     1 ZINC000549659617        1 TEMP              0 ****  ****    0 ROOT


##########                                Name:    ZINC000281092425
##########                DOCK_Rotatable_Bonds:                   8
##########                         Heavy_Atoms:                  23
##########                    Molecular_Weight:             332.304
##########                DOCK_Rotatable_Bonds:                   8
##########                       Formal_Charge:         2.98023e-08
##########                     HBond_Acceptors:                   9
##########                        HBond_Donors:                   2
##########                         Heavy_Atoms:                  23
##########                          Grid_Score:          -29.802586
##########                     Grid_vdw_energy:          -28.829536
##########                      Grid_es_energy:           -0.973050
##########           Internal_energy_repulsive:           21.473949

@<TRIPOS>MOLECULE
ZINC000281092425
 41 42 1 0 0
SMALL
USER_CHARGES


@<TRIPOS>ATOM
      1 O1         -0.5293    1.6109   43.8207 O.2     1  ZINC000281092425   -0.1800
      2 N2         -1.1203    0.9799   44.6786 N.pl3   1  ZINC000281092425    0.0400
      3 O3         -1.6320   -0.0906   44.4035 O.2     1  ZINC000281092425   -0.1500
      4 C4         -1.2116    1.5112   46.0570 C.ar    1  ZINC000281092425   -0.1200
      5 C5         -0.6308    2.7257   46.3682 C.ar    1  ZINC000281092425    0.0200
      6 C6         -0.7138    3.2251   47.6537 C.ar    1  ZINC000281092425   -0.2200
      7 C7         -1.3824    2.5065   48.6370 C.ar    1  ZINC000281092425    0.3000
      8 N8         -1.4668    3.0112   49.9366 N.pl3   1  ZINC000281092425   -0.7200
      9 C9         -2.7668    3.0948   50.6068 C.3     1  ZINC000281092425    0.1200
     10 C10        -2.8726    4.4279   51.3501 C.3     1  ZINC000281092425   -0.0900
     11 H11        -1.8853    4.7270   51.7020 H       1  ZINC000281092425    0.0900
     12 C12        -3.4224    5.4971   50.4039 C.3     1  ZINC000281092425    0.0800
     13 O13        -2.3380    6.2368   49.8394 O.3     1  ZINC000281092425   -0.5700
     14 C14        -3.8144    4.2718   52.5457 C.3     1  ZINC000281092425   -0.1100
     15 H15        -3.5575    3.3859   53.1267 H       1  ZINC000281092425    0.0900
     16 C16        -3.7914    5.5432   53.4373 C.3     1  ZINC000281092425   -0.1600
     17 C17        -5.2101    5.4929   54.0582 C.3     1  ZINC000281092425    0.0500
     18 O18        -6.0587    4.9894   53.0143 O.3     1  ZINC000281092425   -0.3900
     19 C19        -5.2860    4.2172   52.0824 C.3     1  ZINC000281092425    0.0700
     20 C20        -1.9667    1.2862   48.3259 C.ar    1  ZINC000281092425   -0.2800
     21 C21        -1.8854    0.7913   47.0341 C.ar    1  ZINC000281092425    0.2300
     22 O22        -2.4568   -0.4027   46.7262 O.3     1  ZINC000281092425   -0.2900
     23 C23        -1.8604   -1.5721   47.2908 C.3     1  ZINC000281092425    0.4100
     24 F24        -0.5471   -1.2851   47.6784 F       1  ZINC000281092425   -0.1900
     25 F25        -2.5980   -1.9789   48.4078 F       1  ZINC000281092425   -0.1900
     26 H26        -0.1107    3.2857   45.6050 H       1  ZINC000281092425    0.1600
     27 H27        -0.2584    4.1743   47.8945 H       1  ZINC000281092425    0.1500
     28 H28        -0.6648    3.3063   50.3953 H       1  ZINC000281092425    0.4100
     29 H29        -3.5628    3.0281   49.8652 H       1  ZINC000281092425    0.0800
     30 H30        -2.8626    2.2739   51.3175 H       1  ZINC000281092425    0.0800
     31 H31        -3.9904    5.0188   49.6059 H       1  ZINC000281092425    0.0500
     32 H32        -4.0735    6.1729   50.9585 H       1  ZINC000281092425    0.0500
     33 H33        -2.6143    6.9515   49.2495 H       1  ZINC000281092425    0.3800
     34 H34        -3.0229    5.4696   54.2068 H       1  ZINC000281092425    0.0800
     35 H35        -3.6576    6.4424   52.8359 H       1  ZINC000281092425    0.0800
     36 H36        -5.2243    4.8193   54.9151 H       1  ZINC000281092425    0.0600
     37 H37        -5.5284    6.4918   54.3559 H       1  ZINC000281092425    0.0900
     38 H38        -5.3730    4.6469   51.0845 H       1  ZINC000281092425    0.0800
     39 H39        -5.6392    3.1860   52.0743 H       1  ZINC000281092425    0.0700
     40 H40        -2.4871    0.7255   49.0883 H       1  ZINC000281092425    0.1500
     41 H41        -1.8540   -2.3709   46.5491 H       1  ZINC000281092425    0.1900
@<TRIPOS>BOND
     1     1     2    2
     2     2     3    2
     3     2     4    1
     4     4    21   ar
     5     4     5   ar
     6     5     6   ar
     7     5    26    1
     8     6     7   ar
     9     6    27    1
    10     7     8    1
    11     7    20   ar
    12     8     9    1
    13     8    28    1
    14     9    10    1
    15     9    29    1
    16     9    30    1
    17    10    11    1
    18    10    12    1
    19    10    14    1
    20    12    13    1
    21    12    31    1
    22    12    32    1
    23    13    33    1
    24    14    15    1
    25    14    19    1
    26    14    16    1
    27    16    17    1
    28    16    34    1
    29    16    35    1
    30    17    18    1
    31    17    36    1
    32    17    37    1
    33    18    19    1
    34    19    38    1
    35    19    39    1
    36    20    21   ar
    37    20    40    1
    38    21    22    1
    39    22    23    1
    40    23    24    1
    41    23    25    1
    42    23    41    1
@<TRIPOS>SUBSTRUCTURE
     1 ZINC000281092425        1 TEMP              0 ****  ****    0 ROOT


##########                                Name:    ZINC000285228948
##########                DOCK_Rotatable_Bonds:                   8
##########                         Heavy_Atoms:                  23
##########                    Molecular_Weight:             339.822
##########                DOCK_Rotatable_Bonds:                   8
##########                       Formal_Charge:           0.0299997
##########                     HBond_Acceptors:                   7
##########                        HBond_Donors:                   3
##########                         Heavy_Atoms:                  23
##########                          Grid_Score:          -29.799713
##########                     Grid_vdw_energy:          -27.607960
##########                      Grid_es_energy:           -2.191754
##########           Internal_energy_repulsive:           25.635420

@<TRIPOS>MOLECULE
ZINC000285228948
 45 46 1 0 0
SMALL
USER_CHARGES


@<TRIPOS>ATOM
      1 C1          2.2461    5.5079   44.0326 C.3     1  <0>        -0.1600
      2 C2          1.3610    4.3712   44.5480 C.3     1  <0>         0.1800
      3 H3          0.4102    4.3808   44.0151 H       1  <0>         0.1100
      4 C4          1.1124    4.5574   46.0226 C.ar    1  <0>        -0.0900
      5 C5          1.9776    3.9993   46.9452 C.ar    1  <0>        -0.1000
      6 C6          1.7501    4.1697   48.2977 C.ar    1  <0>        -0.1100
      7 C7          0.6560    4.8989   48.7283 C.ar    1  <0>        -0.0300
      8 Cl8         0.3698    5.1138   50.4271 Cl      1  <0>        -0.0700
      9 C9         -0.2096    5.4572   47.8046 C.ar    1  <0>        -0.1100
     10 C10         0.0222    5.2909   46.4522 C.ar    1  <0>        -0.0900
     11 N11         2.0334    3.0890   44.3242 N.am    1  <0>        -0.6100
     12 C12         3.4808    3.0499   44.1014 C.3     1  <0>         0.0600
     13 C13         1.3203    1.9453   44.3233 C.2     1  <0>         0.5200
     14 O14         1.8767    0.8839   44.1365 O.2     1  <0>        -0.5200
     15 C15        -0.1683    1.9852   44.5543 C.3     1  <0>         0.0300
     16 N16        -0.6021    0.7247   45.1714 N.3     1  <0>        -0.4900
     17 C17        -2.0834    0.6552   45.2549 C.3     1  <0>         0.0400
     18 C18        -2.3271   -0.4110   46.3523 C.3     1  <0>        -0.1400
     19 C19        -1.1943   -0.1289   47.3658 C.3     1  <0>         0.1100
     20 O20        -1.6765    0.6892   48.4337 O.3     1  <0>        -0.5400
     21 C21        -0.6427   -1.4226   47.9073 C.2     1  <0>         0.5000
     22 N22        -1.4414   -2.5027   48.0160 N.am    1  <0>        -0.8500
     23 O23         0.5201   -1.4917   48.2452 O.2     1  <0>        -0.5200
     24 C24        -0.1145    0.6208   46.5638 C.3     1  <0>         0.0600
     25 H25         1.7459    6.4619   44.1991 H       1  <0>         0.0700
     26 H26         3.1969    5.4983   44.5655 H       1  <0>         0.0600
     27 H27         2.4260    5.3733   42.9660 H       1  <0>         0.0700
     28 H28         2.8314    3.4298   46.6088 H       1  <0>         0.1400
     29 H29         2.4259    3.7334   49.0183 H       1  <0>         0.1300
     30 H30        -1.0639    6.0262   48.1402 H       1  <0>         0.1400
     31 H31        -0.6533    5.7269   45.7311 H       1  <0>         0.1300
     32 H32         3.9945    2.9864   45.0606 H       1  <0>         0.0600
     33 H33         3.7319    2.1787   43.4964 H       1  <0>         0.0800
     34 H34         3.7929    3.9555   43.5813 H       1  <0>         0.0800
     35 H35        -0.4110    2.8164   45.2165 H       1  <0>         0.1100
     36 H36        -0.6804    2.1185   43.6014 H       1  <0>         0.0700
     37 H37        -2.4975    1.6178   45.5551 H       1  <0>         0.0400
     38 H38        -2.5077    0.3325   44.3040 H       1  <0>         0.1200
     39 H39        -3.3034   -0.2711   46.8162 H       1  <0>         0.0900
     40 H40        -2.2349   -1.4162   45.9408 H       1  <0>         0.0900
     41 H41        -1.9697    1.5674   48.1548 H       1  <0>         0.3800
     42 H42        -1.0867   -3.3350   48.3656 H       1  <0>         0.4000
     43 H43        -2.3711   -2.4476   47.7446 H       1  <0>         0.4100
     44 H44         0.8214    0.0626   46.5889 H       1  <0>         0.1100
     45 H45         0.0331    1.6171   46.9809 H       1  <0>         0.0700
@<TRIPOS>BOND
     1     1     2    1
     2     1    25    1
     3     1    26    1
     4     1    27    1
     5     2     3    1
     6     2     4    1
     7     2    11    1
     8     4    10   ar
     9     4     5   ar
    10     5     6   ar
    11     5    28    1
    12     6     7   ar
    13     6    29    1
    14     7     8    1
    15     7     9   ar
    16     9    10   ar
    17     9    30    1
    18    10    31    1
    19    11    12    1
    20    11    13   am
    21    12    32    1
    22    12    33    1
    23    12    34    1
    24    13    14    2
    25    13    15    1
    26    15    16    1
    27    15    35    1
    28    15    36    1
    29    16    24    1
    30    16    17    1
    31    17    18    1
    32    17    37    1
    33    17    38    1
    34    18    19    1
    35    18    39    1
    36    18    40    1
    37    19    20    1
    38    19    21    1
    39    19    24    1
    40    20    41    1
    41    21    22   am
    42    21    23    2
    43    22    42    1
    44    22    43    1
    45    24    44    1
    46    24    45    1
@<TRIPOS>SUBSTRUCTURE
     1 <0>         1 TEMP              0 ****  ****    0 ROOT


##########                                Name:    ZINC000939075213
##########                DOCK_Rotatable_Bonds:                   7
##########                         Heavy_Atoms:                  24
##########                    Molecular_Weight:             327.426
##########                DOCK_Rotatable_Bonds:                   7
##########                       Formal_Charge:          -0.0200002
##########                     HBond_Acceptors:                   5
##########                        HBond_Donors:                   2
##########                         Heavy_Atoms:                  24
##########                          Grid_Score:          -29.788132
##########                     Grid_vdw_energy:          -25.232384
##########                      Grid_es_energy:           -4.555748
##########           Internal_energy_repulsive:            8.985913

@<TRIPOS>MOLECULE
ZINC000939075213
 49 51 1 0 0
SMALL
USER_CHARGES


@<TRIPOS>ATOM
      1 C1         -2.5752   -0.5758   48.2121 C.3     1  ZINC000939075213   -0.1400
      2 C2         -2.1789    0.7006   47.4672 C.3     1  ZINC000939075213   -0.1100
      3 H3         -3.0614    1.2389   47.1216 H       1  ZINC000939075213    0.0900
      4 C4         -1.2256    0.3822   46.2885 C.3     1  ZINC000939075213    0.1100
      5 N5         -0.4674    1.6274   46.0694 N.am    1  ZINC000939075213   -0.6200
      6 C6          0.1243    1.9940   44.9152 C.2     1  ZINC000939075213    0.5600
      7 O7          0.0575    1.2685   43.9394 O.2     1  ZINC000939075213   -0.5400
      8 C8          0.8233    3.2221   44.8374 C.2     1  ZINC000939075213   -0.2600
      9 C9          1.1398    3.7465   43.6275 C.2     1  ZINC000939075213    0.0400
     10 C10         1.8395    4.9759   43.5492 C.2     1  ZINC000939075213    0.0000
     11 C11         2.4154    5.6578   44.6053 C.2     1  ZINC000939075213   -0.1500
     12 C12         2.9972    6.8147   44.0786 C.2     1  ZINC000939075213   -0.2200
     13 C13         2.7737    6.8221   42.7422 C.2     1  ZINC000939075213    0.0200
     14 N14         2.0757    5.7071   42.4067 N.pl3   1  ZINC000939075213   -0.5000
     15 C15        -0.4644    2.4035   47.3181 C.3     1  ZINC000939075213    0.0900
     16 C16        -1.2862    1.6078   48.3547 C.3     1  ZINC000939075213    0.1400
     17 H17        -0.6321    1.0057   48.9854 H       1  ZINC000939075213    0.1100
     18 N18        -2.1037    2.5093   49.1704 N.am    1  ZINC000939075213   -0.7200
     19 C19        -1.5413    3.1977   50.1834 C.2     1  ZINC000939075213    0.5300
     20 O20        -0.3588    3.0699   50.4207 O.2     1  ZINC000939075213   -0.5300
     21 C21        -2.3819    4.1263   51.0213 C.3     1  ZINC000939075213   -0.0600
     22 C22        -1.5231    4.7988   52.0942 C.3     1  ZINC000939075213   -0.1300
     23 C23        -3.0476    5.1651   50.1491 C.2     1  ZINC000939075213   -0.1700
     24 C24        -4.3026    5.3171   50.4739 C.2     1  ZINC000939075213   -0.1400
     25 C25        -4.6832    4.4052   51.6169 C.3     1  ZINC000939075213   -0.1100
     26 C26        -3.5513    3.3531   51.6740 C.3     1  ZINC000939075213   -0.1100
     27 H27        -3.1781   -0.3163   49.0823 H       1  ZINC000939075213    0.0600
     28 H28        -3.1532   -1.2191   47.5484 H       1  ZINC000939075213    0.0700
     29 H29        -1.6770   -1.1013   48.5360 H       1  ZINC000939075213    0.0600
     30 H30        -0.5506   -0.4310   46.5554 H       1  ZINC000939075213    0.0700
     31 H31        -1.7975    0.1245   45.3971 H       1  ZINC000939075213    0.0800
     32 H32         1.1046    3.7416   45.7414 H       1  ZINC000939075213    0.1300
     33 H33         0.8583    3.2270   42.7234 H       1  ZINC000939075213    0.1500
     34 H34         2.4152    5.3542   45.6418 H       1  ZINC000939075213    0.1400
     35 H35         3.5304    7.5691   44.6380 H       1  ZINC000939075213    0.1400
     36 H36         3.1008    7.5886   42.0552 H       1  ZINC000939075213    0.1600
     37 H37         1.7865    5.4684   41.5121 H       1  ZINC000939075213    0.4100
     38 H38         0.5583    2.5300   47.6733 H       1  ZINC000939075213    0.0800
     39 H39        -0.9240    3.3775   47.1503 H       1  ZINC000939075213    0.0700
     40 H40        -3.0497    2.6107   48.9813 H       1  ZINC000939075213    0.4000
     41 H41        -0.7208    5.3619   51.6172 H       1  ZINC000939075213    0.0600
     42 H42        -2.1417    5.4757   52.6833 H       1  ZINC000939075213    0.0700
     43 H43        -1.0946    4.0378   52.7464 H       1  ZINC000939075213    0.0600
     44 H44        -2.5502    5.7104   49.3606 H       1  ZINC000939075213    0.1300
     45 H45        -4.9800    6.0048   49.9896 H       1  ZINC000939075213    0.1300
     46 H46        -4.7282    4.9654   52.5510 H       1  ZINC000939075213    0.0800
     47 H47        -5.6398    3.9231   51.4159 H       1  ZINC000939075213    0.0800
     48 H48        -3.8093    2.4688   51.0911 H       1  ZINC000939075213    0.0900
     49 H49        -3.3170    3.0859   52.7044 H       1  ZINC000939075213    0.0800
@<TRIPOS>BOND
     1     1     2    1
     2     1    27    1
     3     1    28    1
     4     1    29    1
     5     2     3    1
     6     2    16    1
     7     2     4    1
     8     4     5    1
     9     4    30    1
    10     4    31    1
    11     5     6   am
    12     5    15    1
    13     6     7    2
    14     6     8    1
    15     8     9    2
    16     8    32    1
    17     9    10    1
    18     9    33    1
    19    10    14    1
    20    10    11    2
    21    11    12    1
    22    11    34    1
    23    12    13    2
    24    12    35    1
    25    13    14    1
    26    13    36    1
    27    14    37    1
    28    15    16    1
    29    15    38    1
    30    15    39    1
    31    16    17    1
    32    16    18    1
    33    18    19   am
    34    18    40    1
    35    19    20    2
    36    19    21    1
    37    21    26    1
    38    21    22    1
    39    21    23    1
    40    22    41    1
    41    22    42    1
    42    22    43    1
    43    23    24    2
    44    23    44    1
    45    24    25    1
    46    24    45    1
    47    25    26    1
    48    25    46    1
    49    25    47    1
    50    26    48    1
    51    26    49    1
@<TRIPOS>SUBSTRUCTURE
     1 ZINC000939075213        1 TEMP              0 ****  ****    0 ROOT


##########                                Name:    ZINC000753658424
##########                DOCK_Rotatable_Bonds:                   8
##########                         Heavy_Atoms:                  24
##########                    Molecular_Weight:             332.399
##########                DOCK_Rotatable_Bonds:                   8
##########                       Formal_Charge:        -9.16421e-07
##########                     HBond_Acceptors:                   6
##########                        HBond_Donors:                   3
##########                         Heavy_Atoms:                  24
##########                          Grid_Score:          -29.775589
##########                     Grid_vdw_energy:          -27.682190
##########                      Grid_es_energy:           -2.093400
##########           Internal_energy_repulsive:           15.556005

@<TRIPOS>MOLECULE
ZINC000753658424
 48 49 1 0 0
SMALL
USER_CHARGES


@<TRIPOS>ATOM
      1 C1         -0.2244    1.7631   44.0767 C.3     1  ZINC000753658424   -0.2000
      2 C2          0.4621    1.5958   45.4078 C.2     1  ZINC000753658424    0.4400
      3 O3          1.3808    0.8116   45.5222 O.2     1  ZINC000753658424   -0.4500
      4 C4          0.0200    2.3806   46.5646 C.2     1  ZINC000753658424   -0.2500
      5 C5          0.2602    3.7274   46.7882 C.2     1  ZINC000753658424    0.1000
      6 C6          1.0284    4.6496   45.8768 C.3     1  ZINC000753658424   -0.1000
      7 N7         -0.3081    4.0698   47.9536 N.pl3   1  ZINC000753658424   -0.5300
      8 C8         -0.9215    2.9647   48.5035 C.2     1  ZINC000753658424   -0.0600
      9 C9         -1.6530    2.9327   49.7765 C.2     1  ZINC000753658424    0.5900
     10 O10        -1.0428    2.9403   50.8291 O.2     1  ZINC000753658424   -0.5200
     11 N11        -3.0002    2.8950   49.7788 N.am    1  ZINC000753658424   -0.7300
     12 C12        -3.7299    2.8614   51.0487 C.3     1  ZINC000753658424    0.0900
     13 C13        -4.3334    4.2395   51.3266 C.3     1  ZINC000753658424    0.1900
     14 H14        -4.8030    4.6203   50.4197 H       1  ZINC000753658424    0.1300
     15 O15        -3.3012    5.1367   51.7412 O.3     1  ZINC000753658424   -0.5500
     16 C16        -5.3670    4.1247   52.4173 C.2     1  ZINC000753658424   -0.0600
     17 C17        -6.5155    4.8213   52.4891 C.2     1  ZINC000753658424   -0.1800
     18 C18        -7.1765    4.4010   53.6662 C.2     1  ZINC000753658424   -0.2100
     19 C19        -6.3924    3.4727   54.2431 C.2     1  ZINC000753658424    0.0000
     20 C20        -6.6918    2.7396   55.5253 C.3     1  ZINC000753658424   -0.0800
     21 O21        -5.3006    3.3052   53.4793 O.3     1  ZINC000753658424   -0.1700
     22 C22        -0.7389    1.9085   47.6626 C.2     1  ZINC000753658424   -0.0100
     23 C23        -1.2410    0.5024   47.8668 C.3     1  ZINC000753658424   -0.0500
     24 C24        -1.9036    0.0055   46.5803 C.3     1  ZINC000753658424   -0.1500
     25 C25        -0.0670   -0.4120   48.2220 C.3     1  ZINC000753658424   -0.1500
     26 H26         0.2882    1.1624   43.3254 H       1  ZINC000753658424    0.0800
     27 H27        -1.2607    1.4355   44.1588 H       1  ZINC000753658424    0.1000
     28 H28        -0.1973    2.8125   43.7834 H       1  ZINC000753658424    0.0900
     29 H29         0.3335    5.1742   45.2212 H       1  ZINC000753658424    0.0900
     30 H30         1.5811    5.3740   46.4750 H       1  ZINC000753658424    0.0800
     31 H31         1.7263    4.0673   45.2752 H       1  ZINC000753658424    0.0900
     32 H32        -0.2903    4.9560   48.3477 H       1  ZINC000753658424    0.4200
     33 H33        -3.4867    2.8901   48.9395 H       1  ZINC000753658424    0.4000
     34 H34        -4.5274    2.1207   50.9899 H       1  ZINC000753658424    0.0900
     35 H35        -3.0455    2.5953   51.8541 H       1  ZINC000753658424    0.0800
     36 H36        -3.6178    6.0206   51.9727 H       1  ZINC000753658424    0.3900
     37 H37        -6.8652    5.5603   51.7835 H       1  ZINC000753658424    0.1500
     38 H38        -8.1281    4.7572   54.0320 H       1  ZINC000753658424    0.1500
     39 H39        -7.2436    1.8266   55.3015 H       1  ZINC000753658424    0.0800
     40 H40        -5.7573    2.4859   56.0256 H       1  ZINC000753658424    0.0800
     41 H41        -7.2913    3.3761   56.1762 H       1  ZINC000753658424    0.0900
     42 H42        -1.9689    0.4909   48.6781 H       1  ZINC000753658424    0.1100
     43 H43        -1.1496   -0.0972   45.7998 H       1  ZINC000753658424    0.0500
     44 H44        -2.3717   -0.9617   46.7628 H       1  ZINC000753658424    0.0600
     45 H45        -2.6612    0.7216   46.2618 H       1  ZINC000753658424    0.0600
     46 H46         0.3552   -0.1061   49.1792 H       1  ZINC000753658424    0.0500
     47 H47        -0.4168   -1.4420   48.2918 H       1  ZINC000753658424    0.0600
     48 H48         0.6971   -0.3394   47.4481 H       1  ZINC000753658424    0.0600
@<TRIPOS>BOND
     1     1     2    1
     2     1    26    1
     3     1    27    1
     4     1    28    1
     5     2     3    2
     6     2     4    1
     7     4    22    1
     8     4     5    2
     9     5     6    1
    10     5     7    1
    11     6    29    1
    12     6    30    1
    13     6    31    1
    14     7     8    1
    15     7    32    1
    16     8     9    1
    17     8    22    2
    18     9    10    2
    19     9    11   am
    20    11    12    1
    21    11    33    1
    22    12    13    1
    23    12    34    1
    24    12    35    1
    25    13    14    1
    26    13    15    1
    27    13    16    1
    28    15    36    1
    29    16    21    1
    30    16    17    2
    31    17    18    1
    32    17    37    1
    33    18    19    2
    34    18    38    1
    35    19    20    1
    36    19    21    1
    37    20    39    1
    38    20    40    1
    39    20    41    1
    40    22    23    1
    41    23    24    1
    42    23    25    1
    43    23    42    1
    44    24    43    1
    45    24    44    1
    46    24    45    1
    47    25    46    1
    48    25    47    1
    49    25    48    1
@<TRIPOS>SUBSTRUCTURE
     1 ZINC000753658424        1 TEMP              0 ****  ****    0 ROOT


##########                                Name:    ZINC001401207732
##########                DOCK_Rotatable_Bonds:                   8
##########                         Heavy_Atoms:                  23
##########                    Molecular_Weight:             337.446
##########                DOCK_Rotatable_Bonds:                   8
##########                       Formal_Charge:          -0.0199995
##########                     HBond_Acceptors:                   8
##########                        HBond_Donors:                   1
##########                         Heavy_Atoms:                  23
##########                          Grid_Score:          -29.770857
##########                     Grid_vdw_energy:          -28.468416
##########                      Grid_es_energy:           -1.302441
##########           Internal_energy_repulsive:           19.694029

@<TRIPOS>MOLECULE
ZINC001401207732
 46 47 1 0 0
SMALL
USER_CHARGES


@<TRIPOS>ATOM
      1 C1         -5.7685    3.4665   52.5999 C.3     1  ZINC001401207732   -0.0900
      2 C2         -5.6402    3.1694   54.0718 C.2     1  ZINC001401207732    0.1500
      3 C3         -4.5880    3.5877   54.8190 C.2     1  ZINC001401207732   -0.3000
      4 C4         -3.4424    4.3682   54.3393 C.2     1  ZINC001401207732    0.6100
      5 O5         -3.6244    5.4241   53.7624 O.2     1  ZINC001401207732   -0.5200
      6 N6         -2.1884    3.9159   54.5375 N.am    1  ZINC001401207732   -0.5900
      7 C7         -1.9695    2.6447   55.2320 C.3     1  ZINC001401207732    0.0700
      8 C8         -1.0443    4.6954   54.0584 C.3     1  ZINC001401207732    0.1400
      9 H9         -1.3511    5.7285   53.8955 H       1  ZINC001401207732    0.1100
     10 C10         0.0739    4.6540   55.1019 C.3     1  ZINC001401207732   -0.1600
     11 C11        -0.5368    4.1007   52.7431 C.3     1  ZINC001401207732    0.0500
     12 N12        -1.6001    3.2958   52.1272 N.3     1  ZINC001401207732   -0.6800
     13 C13        -2.0163    3.8696   50.8405 C.3     1  ZINC001401207732    0.1500
     14 C14        -1.7203    2.8898   49.7343 C.2     1  ZINC001401207732    0.1800
     15 N15        -2.3780    1.7861   49.4722 N.2     1  ZINC001401207732   -0.4800
     16 C16        -1.7612    1.2413   48.4083 C.2     1  ZINC001401207732    0.1800
     17 C17        -2.1401   -0.0443   47.7193 C.3     1  ZINC001401207732   -0.0100
     18 C18        -2.1334    0.1679   46.2042 C.3     1  ZINC001401207732   -0.1500
     19 C19        -1.1325   -1.1356   48.0859 C.3     1  ZINC001401207732   -0.1500
     20 N20        -0.7782    2.0270   48.0839 N.2     1  ZINC001401207732   -0.3800
     21 O21        -0.7410    2.9828   48.8298 O.3     1  ZINC001401207732    0.0900
     22 S22        -4.8404    3.0188   56.4676 S.3     1  ZINC001401207732    0.1800
     23 C23        -6.3170    2.2945   56.0015 C.2     1  ZINC001401207732    0.0100
     24 N24        -6.5350    2.4859   54.7401 N.2     1  ZINC001401207732   -0.4800
     25 H25        -5.2979    2.6683   52.0258 H       1  ZINC001401207732    0.0800
     26 H26        -6.8233    3.5327   52.3332 H       1  ZINC001401207732    0.0800
     27 H27        -5.2770    4.4133   52.3762 H       1  ZINC001401207732    0.1000
     28 H28        -1.9829    2.8122   56.3091 H       1  ZINC001401207732    0.0600
     29 H29        -2.7592    1.9431   54.9635 H       1  ZINC001401207732    0.0800
     30 H30        -1.0032    2.2332   54.9405 H       1  ZINC001401207732    0.0900
     31 H31         0.9251    5.2340   54.7453 H       1  ZINC001401207732    0.0700
     32 H32        -0.2876    5.0778   56.0388 H       1  ZINC001401207732    0.0700
     33 H33         0.3808    3.6209   55.2648 H       1  ZINC001401207732    0.0600
     34 H34         0.3292    3.4688   52.9405 H       1  ZINC001401207732    0.0800
     35 H35        -0.2522    4.9060   52.0661 H       1  ZINC001401207732    0.0500
     36 H36        -2.3871    3.1983   52.7511 H       1  ZINC001401207732    0.3600
     37 H37        -1.4695    4.7954   50.6618 H       1  ZINC001401207732    0.1100
     38 H38        -3.0859    4.0781   50.8646 H       1  ZINC001401207732    0.0800
     39 H39        -3.1370   -0.3478   48.0392 H       1  ZINC001401207732    0.1000
     40 H40        -2.4075   -0.7619   45.7058 H       1  ZINC001401207732    0.0700
     41 H41        -2.8513    0.9454   45.9430 H       1  ZINC001401207732    0.0600
     42 H42        -1.1366    0.4714   45.8841 H       1  ZINC001401207732    0.0600
     43 H43        -1.1372   -1.2868   49.1653 H       1  ZINC001401207732    0.0600
     44 H44        -1.4066   -2.0654   47.5876 H       1  ZINC001401207732    0.0700
     45 H45        -0.1356   -0.8321   47.7660 H       1  ZINC001401207732    0.0600
     46 H46        -6.9729    1.7499   56.6646 H       1  ZINC001401207732    0.2000
@<TRIPOS>BOND
     1     1     2    1
     2     1    25    1
     3     1    26    1
     4     1    27    1
     5     2    24    1
     6     2     3    2
     7     3     4    1
     8     3    22    1
     9     4     5    2
    10     4     6   am
    11     6     7    1
    12     6     8    1
    13     7    28    1
    14     7    29    1
    15     7    30    1
    16     8     9    1
    17     8    10    1
    18     8    11    1
    19    10    31    1
    20    10    32    1
    21    10    33    1
    22    11    12    1
    23    11    34    1
    24    11    35    1
    25    12    13    1
    26    12    36    1
    27    13    14    1
    28    13    37    1
    29    13    38    1
    30    14    21    1
    31    14    15    2
    32    15    16    1
    33    16    17    1
    34    16    20    2
    35    17    18    1
    36    17    19    1
    37    17    39    1
    38    18    40    1
    39    18    41    1
    40    18    42    1
    41    19    43    1
    42    19    44    1
    43    19    45    1
    44    20    21    1
    45    22    23    1
    46    23    24    2
    47    23    46    1
@<TRIPOS>SUBSTRUCTURE
     1 ZINC001401207732        1 TEMP              0 ****  ****    0 ROOT


##########                                Name:    ZINC000347662449
##########                DOCK_Rotatable_Bonds:                   5
##########                         Heavy_Atoms:                  23
##########                    Molecular_Weight:              327.45
##########                DOCK_Rotatable_Bonds:                   5
##########                       Formal_Charge:                0.03
##########                     HBond_Acceptors:                   5
##########                        HBond_Donors:                   0
##########                         Heavy_Atoms:                  23
##########                          Grid_Score:          -29.753992
##########                     Grid_vdw_energy:          -29.369408
##########                      Grid_es_energy:           -0.384584
##########           Internal_energy_repulsive:            4.796423

@<TRIPOS>MOLECULE
ZINC000347662449
 44 46 1 0 0
SMALL
USER_CHARGES


@<TRIPOS>ATOM
      1 C1         -8.7638    1.2691   64.5098 C.2     1  ZINC000347662449   -0.1800
      2 C2         -8.3795    1.0740   63.2727 C.2     1  ZINC000347662449   -0.1700
      3 C3         -8.2133   -0.3286   62.7476 C.3     1  ZINC000347662449    0.1600
      4 N4         -9.4341   -0.7359   62.0476 N.am    1  ZINC000347662449   -0.6200
      5 C5        -10.7775   -0.2397   62.3687 C.3     1  ZINC000347662449    0.1100
      6 C6        -11.6479   -0.5815   61.1391 C.3     1  ZINC000347662449   -0.1100
      7 C7        -10.8890   -1.7889   60.5415 C.3     1  ZINC000347662449   -0.1200
      8 H8        -11.3064   -2.7243   60.9143 H       1  ZINC000347662449    0.1400
      9 S9        -10.9525   -1.7450   58.7331 S.3     1  ZINC000347662449    0.0300
     10 C10       -12.4864   -2.5682   58.4607 C.2     1  ZINC000347662449    0.1900
     11 N11       -13.2923   -3.0196   59.3934 N.2     1  ZINC000347662449   -0.4500
     12 C12       -14.3654   -3.5880   58.8180 C.2     1  ZINC000347662449   -0.0100
     13 C13       -14.2323   -3.4921   57.4841 C.2     1  ZINC000347662449   -0.0400
     14 N14       -13.0415   -2.8398   57.2449 N.pl3   1  ZINC000347662449   -0.4000
     15 C15       -12.5004   -2.5235   55.9909 C.ar    1  ZINC000347662449    0.1100
     16 C16       -11.8147   -3.4883   55.2659 C.ar    1  ZINC000347662449   -0.1100
     17 C17       -11.2825   -3.1736   54.0305 C.ar    1  ZINC000347662449   -0.1000
     18 C18       -11.4324   -1.8991   53.5161 C.ar    1  ZINC000347662449   -0.0800
     19 C19       -10.8511   -1.5591   52.1679 C.3     1  ZINC000347662449   -0.1200
     20 C20       -12.1151   -0.9357   54.2361 C.ar    1  ZINC000347662449   -0.0700
     21 C21       -12.2764    0.4524   53.6718 C.3     1  ZINC000347662449   -0.1200
     22 C22       -12.6543   -1.2459   55.4691 C.ar    1  ZINC000347662449   -0.1100
     23 C23        -9.4670   -1.6076   61.0249 C.2     1  ZINC000347662449    0.5300
     24 O24        -8.4986   -2.1721   60.5619 O.2     1  ZINC000347662449   -0.4900
     25 H25        -8.9615    0.4245   65.1534 H       1  ZINC000347662449    0.1000
     26 H26        -8.8787    2.2743   64.8875 H       1  ZINC000347662449    0.1000
     27 H27        -8.1818    1.9186   62.6293 H       1  ZINC000347662449    0.1100
     28 H28        -7.3706   -0.3606   62.0570 H       1  ZINC000347662449    0.0900
     29 H29        -8.0274   -1.0083   63.5792 H       1  ZINC000347662449    0.0900
     30 H30       -11.1633   -0.7425   63.2556 H       1  ZINC000347662449    0.0800
     31 H31       -10.7536    0.8387   62.5260 H       1  ZINC000347662449    0.0900
     32 H32       -12.6560   -0.8653   61.4415 H       1  ZINC000347662449    0.1100
     33 H33       -11.6731    0.2506   60.4354 H       1  ZINC000347662449    0.0900
     34 H34       -15.1942   -4.0442   59.3389 H       1  ZINC000347662449    0.1800
     35 H35       -14.9275   -3.8540   56.7410 H       1  ZINC000347662449    0.1800
     36 H36       -11.6970   -4.4840   55.6674 H       1  ZINC000347662449    0.1300
     37 H37       -10.7486   -3.9238   53.4662 H       1  ZINC000347662449    0.1300
     38 H38       -11.5895   -1.7624   51.3922 H       1  ZINC000347662449    0.0800
     39 H39       -10.5808   -0.5034   52.1446 H       1  ZINC000347662449    0.0700
     40 H40        -9.9628   -2.1657   51.9919 H       1  ZINC000347662449    0.0700
     41 H41       -13.1934    0.5018   53.0848 H       1  ZINC000347662449    0.0800
     42 H42       -12.3283    1.1727   54.4883 H       1  ZINC000347662449    0.0700
     43 H43       -11.4238    0.6867   53.0344 H       1  ZINC000347662449    0.0800
     44 H44       -13.1875   -0.4933   56.0308 H       1  ZINC000347662449    0.1300
@<TRIPOS>BOND
     1     1     2    2
     2     1    25    1
     3     1    26    1
     4     2     3    1
     5     2    27    1
     6     3     4    1
     7     3    28    1
     8     3    29    1
     9     4    23   am
    10     4     5    1
    11     5     6    1
    12     5    30    1
    13     5    31    1
    14     6     7    1
    15     6    32    1
    16     6    33    1
    17     7     8    1
    18     7     9    1
    19     7    23    1
    20     9    10    1
    21    10    14    1
    22    10    11    2
    23    11    12    1
    24    12    13    2
    25    12    34    1
    26    13    14    1
    27    13    35    1
    28    14    15    1
    29    15    22   ar
    30    15    16   ar
    31    16    17   ar
    32    16    36    1
    33    17    18   ar
    34    17    37    1
    35    18    19    1
    36    18    20   ar
    37    19    38    1
    38    19    39    1
    39    19    40    1
    40    20    21    1
    41    20    22   ar
    42    21    41    1
    43    21    42    1
    44    21    43    1
    45    22    44    1
    46    23    24    2
@<TRIPOS>SUBSTRUCTURE
     1 ZINC000347662449        1 TEMP              0 ****  ****    0 ROOT


##########                                Name:    ZINC000880838037
##########                DOCK_Rotatable_Bonds:                   9
##########                         Heavy_Atoms:                  24
##########                    Molecular_Weight:             365.477
##########                DOCK_Rotatable_Bonds:                   9
##########                       Formal_Charge:           0.0200001
##########                     HBond_Acceptors:                   8
##########                        HBond_Donors:                   3
##########                         Heavy_Atoms:                  24
##########                          Grid_Score:          -29.750704
##########                     Grid_vdw_energy:          -28.425394
##########                      Grid_es_energy:           -1.325310
##########           Internal_energy_repulsive:            9.926381

@<TRIPOS>MOLECULE
ZINC000880838037
 43 44 1 0 0
SMALL
USER_CHARGES


@<TRIPOS>ATOM
      1 C1         -9.1041    0.2495   52.0965 C.3     1  ZINC000880838037    0.0300
      2 O2         -9.7177    1.2775   52.8767 O.3     1  ZINC000880838037   -0.3100
      3 C3         -8.9534    1.8636   53.8354 C.ar    1  ZINC000880838037    0.1400
      4 C4         -7.8688    2.6501   53.4740 C.ar    1  ZINC000880838037   -0.2200
      5 C5         -7.0906    3.2468   54.4480 C.ar    1  ZINC000880838037   -0.0700
      6 C6         -7.3893    3.0619   55.7838 C.ar    1  ZINC000880838037   -0.1500
      7 C7         -8.4737    2.2751   56.1514 C.ar    1  ZINC000880838037    0.1800
      8 N8         -8.7765    2.0877   57.5046 N.am    1  ZINC000880838037   -0.6700
      9 C9         -7.9346    1.3908   58.2933 C.2     1  ZINC000880838037    0.5200
     10 O10        -6.9146    0.9260   57.8301 O.2     1  ZINC000880838037   -0.4900
     11 C11        -8.2607    1.1890   59.7506 C.3     1  ZINC000880838037   -0.0600
     12 C12        -9.1816    0.0055   59.9002 C.2     1  ZINC000880838037    0.1000
     13 C13        -8.7799   -1.1602   60.4080 C.2     1  ZINC000880838037   -0.2600
     14 S14       -10.1548   -2.2616   60.4044 S.3     1  ZINC000880838037    0.1300
     15 C15       -11.1410   -1.0453   59.7181 C.2     1  ZINC000880838037    0.0100
     16 S16       -12.8455   -1.2363   59.3141 S.3     1  ZINC000880838037    0.1000
     17 C17       -12.8435   -2.9554   58.7479 C.3     1  ZINC000880838037   -0.1500
     18 H18       -12.2209   -3.5557   59.4113 H       1  ZINC000880838037    0.1200
     19 C19       -12.2855   -3.0231   57.3249 C.3     1  ZINC000880838037   -0.1500
     20 C20       -14.2524   -3.4903   58.7609 C.2     1  ZINC000880838037    0.5400
     21 N21       -15.0814   -3.2303   57.7305 N.am    1  ZINC000880838037   -0.8400
     22 O22       -14.6402   -4.1545   59.6985 O.2     1  ZINC000880838037   -0.5200
     23 N23       -10.4530    0.0410   59.5437 N.2     1  ZINC000880838037   -0.4200
     24 C24        -9.2601    1.6807   55.1749 C.ar    1  ZINC000880838037   -0.1500
     25 C25       -10.4372    0.8265   55.5699 C.3     1  ZINC000880838037   -0.1000
     26 H26        -8.7832   -0.5608   52.7511 H       1  ZINC000880838037    0.0600
     27 H27        -9.8216   -0.1326   51.3702 H       1  ZINC000880838037    0.1000
     28 H28        -8.2397    0.6577   51.5729 H       1  ZINC000880838037    0.0600
     29 H29        -7.6323    2.7959   52.4304 H       1  ZINC000880838037    0.1300
     30 H30        -6.2470    3.8584   54.1641 H       1  ZINC000880838037    0.1300
     31 H31        -6.7794    3.5289   56.5429 H       1  ZINC000880838037    0.1400
     32 H32        -9.5923    2.4594   57.8750 H       1  ZINC000880838037    0.4100
     33 H33        -7.3412    1.0065   60.3068 H       1  ZINC000880838037    0.1200
     34 H34        -8.7500    2.0816   60.1404 H       1  ZINC000880838037    0.1200
     35 H35        -7.7849   -1.3894   60.7598 H       1  ZINC000880838037    0.1800
     36 H36       -12.9081   -2.4228   56.6615 H       1  ZINC000880838037    0.0900
     37 H37       -11.2664   -2.6363   57.3154 H       1  ZINC000880838037    0.0800
     38 H38       -12.2843   -4.0584   56.9839 H       1  ZINC000880838037    0.0800
     39 H39       -15.9878   -3.5754   57.7383 H       1  ZINC000880838037    0.4000
     40 H40       -14.7715   -2.6979   56.9812 H       1  ZINC000880838037    0.4100
     41 H41       -11.3279    1.4498   55.6493 H       1  ZINC000880838037    0.0700
     42 H42       -10.5980    0.0575   54.8144 H       1  ZINC000880838037    0.0700
     43 H43       -10.2371    0.3546   56.5318 H       1  ZINC000880838037    0.0600
@<TRIPOS>BOND
     1     1     2    1
     2     1    26    1
     3     1    27    1
     4     1    28    1
     5     2     3    1
     6     3    24   ar
     7     3     4   ar
     8     4     5   ar
     9     4    29    1
    10     5     6   ar
    11     5    30    1
    12     6     7   ar
    13     6    31    1
    14     7     8    1
    15     7    24   ar
    16     8     9   am
    17     8    32    1
    18     9    10    2
    19     9    11    1
    20    11    12    1
    21    11    33    1
    22    11    34    1
    23    12    23    1
    24    12    13    2
    25    13    14    1
    26    13    35    1
    27    14    15    1
    28    15    16    1
    29    15    23    2
    30    16    17    1
    31    17    18    1
    32    17    19    1
    33    17    20    1
    34    19    36    1
    35    19    37    1
    36    19    38    1
    37    20    21   am
    38    20    22    2
    39    21    39    1
    40    21    40    1
    41    24    25    1
    42    25    41    1
    43    25    42    1
    44    25    43    1
@<TRIPOS>SUBSTRUCTURE
     1 ZINC000880838037        1 TEMP              0 ****  ****    0 ROOT


##########                                Name:    ZINC001119787528
##########                DOCK_Rotatable_Bonds:                   6
##########                         Heavy_Atoms:                  27
##########                    Molecular_Weight:             362.434
##########                DOCK_Rotatable_Bonds:                   6
##########                       Formal_Charge:          -0.0199998
##########                     HBond_Acceptors:                   7
##########                        HBond_Donors:                   1
##########                         Heavy_Atoms:                  27
##########                          Grid_Score:          -29.747906
##########                     Grid_vdw_energy:          -29.790318
##########                      Grid_es_energy:            0.042412
##########           Internal_energy_repulsive:            9.195693

@<TRIPOS>MOLECULE
ZINC001119787528
 49 52 1 0 0
SMALL
USER_CHARGES


@<TRIPOS>ATOM
      1 C1         -8.2113    2.2661   53.3629 C.3     1  ZINC001119787528   -0.1700
      2 C2         -9.3747    2.0436   52.3945 C.3     1  ZINC001119787528    0.1000
      3 N3         -9.7880    0.6389   52.4422 N.pl3   1  ZINC001119787528   -0.4500
      4 C4         -9.2241   -0.3887   51.7666 C.2     1  ZINC001119787528    0.1800
      5 N5         -9.8657   -1.4891   52.0623 N.2     1  ZINC001119787528   -0.4800
      6 C6        -10.8454   -1.2054   52.9232 C.2     1  ZINC001119787528   -0.0200
      7 C7        -10.8089    0.1198   53.1797 C.2     1  ZINC001119787528   -0.0100
      8 C8        -11.7456    0.8421   54.1121 C.3     1  ZINC001119787528   -0.0600
      9 C9        -12.9778   -0.0390   54.3555 C.3     1  ZINC001119787528    0.1400
     10 N10       -12.5393   -1.4185   54.6149 N.am    1  ZINC001119787528   -0.6200
     11 C11       -12.7606   -1.9998   55.8105 C.2     1  ZINC001119787528    0.7200
     12 O12       -12.3916   -3.1410   56.0090 O.2     1  ZINC001119787528   -0.5600
     13 N13       -13.3907   -1.3159   56.7861 N.am    1  ZINC001119787528   -0.6600
     14 C14       -13.6190   -1.9155   58.0192 C.ar    1  ZINC001119787528    0.4200
     15 C15       -14.5847   -2.9132   58.1540 C.ar    1  ZINC001119787528   -0.2500
     16 C16       -14.7738   -3.4789   59.4007 C.ar    1  ZINC001119787528    0.1600
     17 N17       -14.0379   -3.0589   60.4193 N.ar    1  ZINC001119787528   -0.5300
     18 C18       -13.1333   -2.1139   60.2588 C.ar    1  ZINC001119787528    0.3500
     19 C19       -12.3198   -1.6692   61.4469 C.3     1  ZINC001119787528   -0.0100
     20 C20       -11.0113   -1.0916   60.9718 C.ar    1  ZINC001119787528   -0.0800
     21 C21       -10.8917    0.2697   60.7640 C.ar    1  ZINC001119787528   -0.1000
     22 C22        -9.6916    0.7995   60.3282 C.ar    1  ZINC001119787528   -0.1200
     23 C23        -8.6110   -0.0320   60.1006 C.ar    1  ZINC001119787528   -0.1200
     24 C24        -8.7305   -1.3933   60.3094 C.ar    1  ZINC001119787528   -0.1200
     25 C25        -9.9293   -1.9225   60.7493 C.ar    1  ZINC001119787528   -0.1000
     26 N26       -12.9167   -1.5512   59.0875 N.ar    1  ZINC001119787528   -0.5500
     27 C27       -11.8491   -2.1512   53.5391 C.3     1  ZINC001119787528    0.2000
     28 H28        -7.9037    3.3112   53.3274 H       1  ZINC001119787528    0.0800
     29 H29        -8.5280    2.0146   54.3752 H       1  ZINC001119787528    0.0600
     30 H30        -7.3733    1.6308   53.0761 H       1  ZINC001119787528    0.0600
     31 H31       -10.2127    2.6789   52.6813 H       1  ZINC001119787528    0.0900
     32 H32        -9.0579    2.2950   51.3822 H       1  ZINC001119787528    0.1000
     33 H33        -8.3829   -0.3127   51.0935 H       1  ZINC001119787528    0.2100
     34 H34       -11.2416    1.0351   55.0591 H       1  ZINC001119787528    0.0800
     35 H35       -12.0543    1.7853   53.6614 H       1  ZINC001119787528    0.0900
     36 H36       -13.5294    0.3361   55.2175 H       1  ZINC001119787528    0.1100
     37 H37       -13.6191   -0.0201   53.4745 H       1  ZINC001119787528    0.0800
     38 H38       -13.6851   -0.4054   56.6276 H       1  ZINC001119787528    0.4200
     39 H39       -15.1701   -3.2351   57.3055 H       1  ZINC001119787528    0.1800
     40 H40       -15.5128   -4.2537   59.5430 H       1  ZINC001119787528    0.1700
     41 H41       -12.8717   -0.9104   62.0016 H       1  ZINC001119787528    0.1000
     42 H42       -12.1258   -2.5238   62.0949 H       1  ZINC001119787528    0.1000
     43 H43       -11.7360    0.9194   60.9417 H       1  ZINC001119787528    0.1300
     44 H44        -9.5983    1.8631   60.1651 H       1  ZINC001119787528    0.1200
     45 H45        -7.6736    0.3818   59.7595 H       1  ZINC001119787528    0.1200
     46 H46        -7.8863   -2.0430   60.1312 H       1  ZINC001119787528    0.1200
     47 H47       -10.0225   -2.9860   60.9123 H       1  ZINC001119787528    0.1200
     48 H48       -12.5688   -2.4641   52.7827 H       1  ZINC001119787528    0.0900
     49 H49       -11.3402   -3.0225   53.9511 H       1  ZINC001119787528    0.0900
@<TRIPOS>BOND
     1     1     2    1
     2     1    28    1
     3     1    29    1
     4     1    30    1
     5     2     3    1
     6     2    31    1
     7     2    32    1
     8     3     7    1
     9     3     4    1
    10     4     5    2
    11     4    33    1
    12     5     6    1
    13     6    27    1
    14     6     7    2
    15     7     8    1
    16     8     9    1
    17     8    34    1
    18     8    35    1
    19     9    10    1
    20     9    36    1
    21     9    37    1
    22    10    11   am
    23    10    27    1
    24    11    12    2
    25    11    13   am
    26    13    14    1
    27    13    38    1
    28    14    26   ar
    29    14    15   ar
    30    15    16   ar
    31    15    39    1
    32    16    17   ar
    33    16    40    1
    34    17    18   ar
    35    18    19    1
    36    18    26   ar
    37    19    20    1
    38    19    41    1
    39    19    42    1
    40    20    25   ar
    41    20    21   ar
    42    21    22   ar
    43    21    43    1
    44    22    23   ar
    45    22    44    1
    46    23    24   ar
    47    23    45    1
    48    24    25   ar
    49    24    46    1
    50    25    47    1
    51    27    48    1
    52    27    49    1
@<TRIPOS>SUBSTRUCTURE
     1 ZINC001119787528        1 TEMP              0 ****  ****    0 ROOT


##########                                Name:    ZINC000854704989
##########                DOCK_Rotatable_Bonds:                   5
##########                         Heavy_Atoms:                  22
##########                    Molecular_Weight:             365.227
##########                DOCK_Rotatable_Bonds:                   5
##########                       Formal_Charge:        -1.78814e-07
##########                     HBond_Acceptors:                   5
##########                        HBond_Donors:                   1
##########                         Heavy_Atoms:                  22
##########                          Grid_Score:          -29.743252
##########                     Grid_vdw_energy:          -28.134192
##########                      Grid_es_energy:           -1.609060
##########           Internal_energy_repulsive:            7.014083

@<TRIPOS>MOLECULE
ZINC000854704989
 39 41 1 0 0
SMALL
USER_CHARGES


@<TRIPOS>ATOM
      1 O1         -1.5493    5.4649   51.1480 O.2     1  ZINC000854704989   -0.5300
      2 C2         -1.7305    4.3321   50.7460 C.2     1  ZINC000854704989    0.5700
      3 N3         -2.3005    3.4143   51.5516 N.am    1  ZINC000854704989   -0.7300
      4 C4         -2.6961    3.7801   52.9139 C.3     1  ZINC000854704989    0.2000
      5 C5         -1.6114    3.3742   53.8781 C.2     1  ZINC000854704989   -0.0500
      6 C6         -1.7681    3.0440   55.1820 C.2     1  ZINC000854704989   -0.1700
      7 C7         -0.4555    2.7492   55.6201 C.2     1  ZINC000854704989    0.0000
      8 Br8         0.0656    2.2107   57.3563 Br      1  ZINC000854704989    0.0600
      9 N9          0.3227    2.9220   54.5899 N.2     1  ZINC000854704989   -0.3200
     10 O10        -0.3022    3.2633   53.6126 O.3     1  ZINC000854704989    0.1300
     11 C11        -1.3312    3.9628   49.3711 C.ar    1  ZINC000854704989   -0.1300
     12 C12        -0.9605    4.9522   48.4593 C.ar    1  ZINC000854704989   -0.0900
     13 C13        -0.5885    4.6008   47.1780 C.ar    1  ZINC000854704989   -0.1200
     14 C14        -0.5832    3.2712   46.7962 C.ar    1  ZINC000854704989   -0.0900
     15 C15        -0.9498    2.2852   47.6954 C.ar    1  ZINC000854704989   -0.0800
     16 C16        -0.9409    0.8393   47.2707 C.3     1  ZINC000854704989   -0.0800
     17 H17        -0.5370    0.7586   46.2615 H       1  ZINC000854704989    0.0900
     18 C18        -2.3704    0.2896   47.2954 C.3     1  ZINC000854704989   -0.1100
     19 C19        -2.3393   -1.1995   46.9377 C.3     1  ZINC000854704989   -0.1600
     20 C20        -1.4180   -1.9323   47.9165 C.3     1  ZINC000854704989    0.0600
     21 O21        -0.1131   -1.3518   47.8659 O.3     1  ZINC000854704989   -0.3800
     22 C22        -0.0723    0.0280   48.2357 C.3     1  ZINC000854704989    0.0700
     23 C23        -1.3181    2.6226   48.9811 C.ar    1  ZINC000854704989   -0.0500
     24 H24        -2.4487    2.5114   51.2295 H       1  ZINC000854704989    0.4000
     25 H25        -2.8485    4.8579   52.9710 H       1  ZINC000854704989    0.1100
     26 H26        -3.6228    3.2680   53.1730 H       1  ZINC000854704989    0.1000
     27 H27        -2.6831    3.0131   55.7550 H       1  ZINC000854704989    0.1900
     28 H28        -0.9649    5.9906   48.7561 H       1  ZINC000854704989    0.1200
     29 H29        -0.3013    5.3654   46.4715 H       1  ZINC000854704989    0.1300
     30 H30        -0.2918    3.0013   45.7918 H       1  ZINC000854704989    0.1300
     31 H31        -2.7926    0.4164   48.2923 H       1  ZINC000854704989    0.0700
     32 H32        -2.9802    0.8264   46.5688 H       1  ZINC000854704989    0.0700
     33 H33        -3.3459   -1.6118   47.0069 H       1  ZINC000854704989    0.0800
     34 H34        -1.9633   -1.3223   45.9221 H       1  ZINC000854704989    0.0700
     35 H35        -1.8166   -1.8431   48.9271 H       1  ZINC000854704989    0.0500
     36 H36        -1.3584   -2.9852   47.6407 H       1  ZINC000854704989    0.1000
     37 H37         0.9562    0.3862   48.1901 H       1  ZINC000854704989    0.1000
     38 H38        -0.4531    0.1439   49.2503 H       1  ZINC000854704989    0.0500
     39 H39        -1.6037    1.8521   49.6821 H       1  ZINC000854704989    0.1400
@<TRIPOS>BOND
     1     1     2    2
     2     2     3   am
     3     2    11    1
     4     3     4    1
     5     3    24    1
     6     4     5    1
     7     4    25    1
     8     4    26    1
     9     5    10    1
    10     5     6    2
    11     6     7    1
    12     6    27    1
    13     7     8    1
    14     7     9    2
    15     9    10    1
    16    11    23   ar
    17    11    12   ar
    18    12    13   ar
    19    12    28    1
    20    13    14   ar
    21    13    29    1
    22    14    15   ar
    23    14    30    1
    24    15    16    1
    25    15    23   ar
    26    16    17    1
    27    16    22    1
    28    16    18    1
    29    18    19    1
    30    18    31    1
    31    18    32    1
    32    19    20    1
    33    19    33    1
    34    19    34    1
    35    20    21    1
    36    20    35    1
    37    20    36    1
    38    21    22    1
    39    22    37    1
    40    22    38    1
    41    23    39    1
@<TRIPOS>SUBSTRUCTURE
     1 ZINC000854704989        1 TEMP              0 ****  ****    0 ROOT


##########                                Name:    ZINC000951315041
##########                DOCK_Rotatable_Bonds:                   5
##########                         Heavy_Atoms:                  25
##########                    Molecular_Weight:             340.382
##########                DOCK_Rotatable_Bonds:                   5
##########                       Formal_Charge:          0.00999974
##########                     HBond_Acceptors:                   7
##########                        HBond_Donors:                   1
##########                         Heavy_Atoms:                  25
##########                          Grid_Score:          -29.734720
##########                     Grid_vdw_energy:          -28.066378
##########                      Grid_es_energy:           -1.668342
##########           Internal_energy_repulsive:           10.308625

@<TRIPOS>MOLECULE
ZINC000951315041
 45 47 1 0 0
SMALL
USER_CHARGES


@<TRIPOS>ATOM
      1 C1         -1.2194   -1.9928   48.1706 C.3     1  ZINC000951315041    0.0500
      2 N2         -1.1437   -0.7859   47.3437 N.am    1  ZINC000951315041   -0.4900
      3 C3         -0.2484    0.1715   47.6497 C.2     1  ZINC000951315041    0.1700
      4 C4         -0.1600    1.3167   46.8850 C.2     1  ZINC000951315041   -0.2400
      5 C5          0.8224    2.3627   47.2242 C.2     1  ZINC000951315041    0.5800
      6 O6          1.9568    2.2949   46.7913 O.2     1  ZINC000951315041   -0.5200
      7 N7          0.4632    3.3939   48.0142 N.am    1  ZINC000951315041   -0.6000
      8 C8          1.4308    4.4437   48.3610 C.3     1  ZINC000951315041    0.1100
      9 C9          1.4761    4.5884   49.8854 C.3     1  ZINC000951315041   -0.1300
     10 C10         0.0612    4.8388   50.4123 C.3     1  ZINC000951315041   -0.1300
     11 C11        -0.8323    3.6453   50.0667 C.3     1  ZINC000951315041    0.1300
     12 H12        -0.4148    2.7392   50.5057 H       1  ZINC000951315041    0.1000
     13 N13        -2.1780    3.8716   50.5995 N.am    1  ZINC000951315041   -0.7200
     14 C14        -2.4160    3.7172   51.9171 C.2     1  ZINC000951315041    0.5700
     15 O15        -1.5142    3.3888   52.6631 O.2     1  ZINC000951315041   -0.5200
     16 C16        -3.7737    3.9473   52.4550 C.ar    1  ZINC000951315041   -0.1900
     17 C17        -4.0735    3.6375   53.7868 C.ar    1  ZINC000951315041   -0.0100
     18 C18        -5.3594    3.8723   54.2413 C.ar    1  ZINC000951315041   -0.1800
     19 C19        -6.2982    4.4005   53.3738 C.ar    1  ZINC000951315041    0.1300
     20 N20        -5.9871    4.6825   52.1228 N.ar    1  ZINC000951315041   -0.4900
     21 C21        -4.7764    4.4825   51.6453 C.ar    1  ZINC000951315041    0.1400
     22 C22        -0.9053    3.4929   48.5398 C.3     1  ZINC000951315041    0.1000
     23 C23        -1.0197    1.4795   45.7716 C.2     1  ZINC000951315041    0.0100
     24 C24        -1.9157    0.4987   45.4816 C.2     1  ZINC000951315041   -0.2300
     25 C25        -1.9663   -0.6543   46.2873 C.2     1  ZINC000951315041    0.5100
     26 O26        -2.7680   -1.5370   46.0310 O.2     1  ZINC000951315041   -0.5400
     27 H27        -1.9901   -2.6554   47.7764 H       1  ZINC000951315041    0.1100
     28 H28        -0.2573   -2.5050   48.1548 H       1  ZINC000951315041    0.0800
     29 H29        -1.4673   -1.7163   49.1952 H       1  ZINC000951315041    0.0800
     30 H30         0.4050    0.0425   48.4999 H       1  ZINC000951315041    0.1700
     31 H31         2.4180    4.1676   47.9907 H       1  ZINC000951315041    0.1000
     32 H32         1.1215    5.3882   47.9133 H       1  ZINC000951315041    0.0700
     33 H33         1.8718    3.6735   50.3261 H       1  ZINC000951315041    0.0700
     34 H34         2.1176    5.4283   50.1522 H       1  ZINC000951315041    0.0900
     35 H35         0.0940    4.9666   51.4943 H       1  ZINC000951315041    0.0800
     36 H36        -0.3434    5.7405   49.9524 H       1  ZINC000951315041    0.0700
     37 H37        -2.8979    4.1325   50.0040 H       1  ZINC000951315041    0.4000
     38 H38        -3.3207    3.2255   54.4427 H       1  ZINC000951315041    0.1500
     39 H39        -5.6271    3.6452   55.2627 H       1  ZINC000951315041    0.1500
     40 H40        -7.3024    4.5847   53.7258 H       1  ZINC000951315041    0.1600
     41 H41        -4.5601    4.7262   50.6156 H       1  ZINC000951315041    0.1600
     42 H42        -1.4059    4.3602   48.1094 H       1  ZINC000951315041    0.0700
     43 H43        -1.4581    2.5876   48.2889 H       1  ZINC000951315041    0.0900
     44 H44        -0.9647    2.3694   45.1622 H       1  ZINC000951315041    0.1400
     45 H45        -2.5813    0.6023   44.6373 H       1  ZINC000951315041    0.1600
@<TRIPOS>BOND
     1     1     2    1
     2     1    27    1
     3     1    28    1
     4     1    29    1
     5     2    25   am
     6     2     3    1
     7     3     4    2
     8     3    30    1
     9     4     5    1
    10     4    23    1
    11     5     6    2
    12     5     7   am
    13     7    22    1
    14     7     8    1
    15     8     9    1
    16     8    31    1
    17     8    32    1
    18     9    10    1
    19     9    33    1
    20     9    34    1
    21    10    11    1
    22    10    35    1
    23    10    36    1
    24    11    12    1
    25    11    13    1
    26    11    22    1
    27    13    14   am
    28    13    37    1
    29    14    15    2
    30    14    16    1
    31    16    21   ar
    32    16    17   ar
    33    17    18   ar
    34    17    38    1
    35    18    19   ar
    36    18    39    1
    37    19    20   ar
    38    19    40    1
    39    20    21   ar
    40    21    41    1
    41    22    42    1
    42    22    43    1
    43    23    24    2
    44    23    44    1
    45    24    25    1
    46    24    45    1
    47    25    26    2
@<TRIPOS>SUBSTRUCTURE
     1 ZINC000951315041        1 TEMP              0 ****  ****    0 ROOT


##########                                Name:    ZINC001078748831
##########                DOCK_Rotatable_Bonds:                   6
##########                         Heavy_Atoms:                  23
##########                    Molecular_Weight:             333.417
##########                DOCK_Rotatable_Bonds:                   6
##########                       Formal_Charge:           0.0299999
##########                     HBond_Acceptors:                   9
##########                        HBond_Donors:                   2
##########                         Heavy_Atoms:                  23
##########                          Grid_Score:          -29.732361
##########                     Grid_vdw_energy:          -30.127863
##########                      Grid_es_energy:            0.395501
##########           Internal_energy_repulsive:            6.518568

@<TRIPOS>MOLECULE
ZINC001078748831
 42 45 1 0 0
SMALL
USER_CHARGES


@<TRIPOS>ATOM
      1 C1          0.8427    1.5665   56.6267 C.3     1  ZINC001078748831    0.1000
      2 N2         -0.0865    2.5106   56.0009 N.pl3   1  ZINC001078748831   -0.1400
      3 N3         -0.6511    3.4890   56.6137 N.2     1  ZINC001078748831   -0.2900
      4 C4         -1.4184    4.1368   55.7704 C.2     1  ZINC001078748831    0.0400
      5 C5         -1.2864    3.4651   54.5386 C.2     1  ZINC001078748831   -0.0500
      6 C6         -1.9490    3.8016   53.2609 C.2     1  ZINC001078748831    0.6200
      7 O7         -3.1204    4.1260   53.2508 O.2     1  ZINC001078748831   -0.5200
      8 N8         -1.2543    3.7486   52.1072 N.am    1  ZINC001078748831   -0.7000
      9 C9         -1.9115    4.0805   50.8406 C.3     1  ZINC001078748831    0.1500
     10 H10        -2.4428    5.0316   50.8751 H       1  ZINC001078748831    0.1100
     11 C11        -2.7475    2.9267   50.2575 C.3     1  ZINC001078748831   -0.1800
     12 C12        -1.4744    2.4741   49.5196 C.3     1  ZINC001078748831    0.0800
     13 H13        -0.8626    1.7758   50.0906 H       1  ZINC001078748831    0.1000
     14 N14        -1.7193    2.0251   48.1425 N.3     1  ZINC001078748831   -0.6700
     15 C15        -2.5793    0.8343   48.1221 C.3     1  ZINC001078748831    0.1400
     16 C16        -1.7221   -0.4050   48.1457 C.2     1  ZINC001078748831    0.0600
     17 N17        -0.4449   -0.4008   48.4094 N.2     1  ZINC001078748831   -0.5700
     18 S18         0.0777   -1.8688   48.3369 S.3     1  ZINC001078748831    0.6800
     19 N19        -1.2624   -2.5799   47.9735 N.2     1  ZINC001078748831   -0.5700
     20 C20        -2.2000   -1.6766   47.8965 C.2     1  ZINC001078748831    0.0500
     21 C21        -1.0035    3.9285   49.6198 C.3     1  ZINC001078748831   -0.1000
     22 C22        -1.1138    4.8794   48.4274 C.3     1  ZINC001078748831   -0.1000
     23 C23         0.1200    5.6009   48.9993 C.3     1  ZINC001078748831   -0.1400
     24 C24         0.4842    4.2747   49.6911 C.3     1  ZINC001078748831   -0.1200
     25 N25        -0.4399    2.4722   54.7651 N.2     1  ZINC001078748831   -0.2500
     26 H26         1.8608    1.9457   56.5377 H       1  ZINC001078748831    0.1000
     27 H27         0.5888    1.4513   57.6805 H       1  ZINC001078748831    0.1100
     28 H28         0.7699    0.6002   56.1277 H       1  ZINC001078748831    0.1100
     29 H29        -2.0263    5.0052   55.9772 H       1  ZINC001078748831    0.2100
     30 H30        -0.3193    3.4909   52.1155 H       1  ZINC001078748831    0.4100
     31 H31        -3.0925    2.2155   51.0081 H       1  ZINC001078748831    0.0700
     32 H32        -3.5434    3.2585   49.5907 H       1  ZINC001078748831    0.1000
     33 H33        -2.1159    2.7670   47.5854 H       1  ZINC001078748831    0.3500
     34 H34        -3.2313    0.8419   48.9955 H       1  ZINC001078748831    0.1000
     35 H35        -3.1856    0.8394   47.2162 H       1  ZINC001078748831    0.0600
     36 H36        -3.2303   -1.8969   47.6590 H       1  ZINC001078748831    0.2000
     37 H37        -0.9328    4.3984   47.4661 H       1  ZINC001078748831    0.1000
     38 H38        -2.0185    5.4871   48.4347 H       1  ZINC001078748831    0.0700
     39 H39         0.8378    5.9072   48.2383 H       1  ZINC001078748831    0.0700
     40 H40        -0.1273    6.4023   49.6955 H       1  ZINC001078748831    0.0800
     41 H41         0.8560    4.3996   50.7081 H       1  ZINC001078748831    0.0700
     42 H42         1.1144    3.6238   49.0852 H       1  ZINC001078748831    0.0900
@<TRIPOS>BOND
     1     1     2    1
     2     1    26    1
     3     1    27    1
     4     1    28    1
     5     2    25    1
     6     2     3    1
     7     3     4    2
     8     4     5    1
     9     4    29    1
    10     5     6    1
    11     5    25    2
    12     6     7    2
    13     6     8   am
    14     8     9    1
    15     8    30    1
    16     9    10    1
    17     9    21    1
    18     9    11    1
    19    11    12    1
    20    11    31    1
    21    11    32    1
    22    12    13    1
    23    12    14    1
    24    12    21    1
    25    14    15    1
    26    14    33    1
    27    15    16    1
    28    15    34    1
    29    15    35    1
    30    16    20    1
    31    16    17    2
    32    17    18    1
    33    18    19    1
    34    19    20    2
    35    20    36    1
    36    21    24    1
    37    21    22    1
    38    22    23    1
    39    22    37    1
    40    22    38    1
    41    23    24    1
    42    23    39    1
    43    23    40    1
    44    24    41    1
    45    24    42    1
@<TRIPOS>SUBSTRUCTURE
     1 ZINC001078748831        1 TEMP              0 ****  ****    0 ROOT


##########                                Name:      oleObject5.pdb
##########                DOCK_Rotatable_Bonds:                   5
##########                         Heavy_Atoms:                  24
##########                    Molecular_Weight:             323.438
##########                DOCK_Rotatable_Bonds:                   5
##########                       Formal_Charge:         0.000200074
##########                     HBond_Acceptors:                   4
##########                        HBond_Donors:                   2
##########                         Heavy_Atoms:                  24
##########                          Grid_Score:          -29.728460
##########                     Grid_vdw_energy:          -29.992071
##########                      Grid_es_energy:            0.263610
##########           Internal_energy_repulsive:           20.930279

@<TRIPOS>MOLECULE
oleObject5.pdb
 49 51 1 0 0
SMALL
NO_CHARGES


@<TRIPOS>ATOM
      1 C          -2.5156    2.4053   49.7581 C.3     1  UNL        -0.0394
      2 C          -1.0659    2.8745   49.8338 C.ar    1  UNL        -0.0456
      3 C          -0.6822    3.6519   50.9443 C.ar    1  UNL        -0.0590
      4 C           0.6283    4.1348   51.0670 C.ar    1  UNL        -0.0620
      5 C           1.5709    3.8484   50.0721 C.ar    1  UNL        -0.0619
      6 C           1.2007    3.0779   48.9607 C.ar    1  UNL        -0.0565
      7 C          -0.1110    2.5750   48.8270 C.ar    1  UNL        -0.0188
      8 C          -0.4563    1.7638   47.5707 C.3     1  UNL         0.0906
      9 N           0.5756    1.9897   46.5432 N.am    1  UNL        -0.3025
     10 C           0.3232    1.8922   45.1867 C.2     1  UNL         0.2156
     11 O          -0.8072    1.7751   44.7458 O.2     1  UNL        -0.2774
     12 C           1.5525    2.1702   44.3008 C.3     1  UNL         0.0382
     13 C           2.4797    3.2421   44.9339 C.3     1  UNL        -0.0292
     14 C           1.8795    4.6600   44.8150 C.3     1  UNL        -0.0041
     15 N           1.5955    4.9898   43.4078 N.4     1  UNL        -0.3167
     16 C           0.6650    4.0468   42.7622 C.3     1  UNL        -0.0041
     17 C           1.1748    2.5863   42.8526 C.3     1  UNL        -0.0292
     18 C          -0.6652    0.2738   47.8914 C.ar    1  UNL         0.0681
     19 N          -1.9325   -0.1959   47.7912 N.ar    1  UNL        -0.2587
     20 C          -2.1792   -1.4937   48.0500 C.ar    1  UNL         0.0272
     21 C          -1.1713   -2.3960   48.4200 C.ar    1  UNL        -0.0435
     22 C           0.1457   -1.9260   48.5227 C.ar    1  UNL        -0.0559
     23 C           0.4143   -0.5702   48.2549 C.ar    1  UNL        -0.0272
     24 C           1.8466   -0.0614   48.3577 C.3     1  UNL        -0.0379
     25 H          -3.0560    2.6136   50.6898 H       1  UNL         0.0280
     26 H          -2.5873    1.3258   49.5856 H       1  UNL         0.0280
     27 H          -3.0543    2.9182   48.9541 H       1  UNL         0.0280
     28 H          -1.4063    3.8899   51.7186 H       1  UNL         0.0626
     29 H           0.9097    4.7342   51.9280 H       1  UNL         0.0623
     30 H           2.5858    4.2260   50.1587 H       1  UNL         0.0623
     31 H           1.9424    2.8774   48.1934 H       1  UNL         0.0627
     32 H          -1.4001    2.1239   47.1508 H       1  UNL         0.0624
     33 H           1.3439    2.5872   46.8190 H       1  UNL         0.1504
     34 H           2.1111    1.2269   44.2441 H       1  UNL         0.0402
     35 H           3.4491    3.2253   44.4194 H       1  UNL         0.0288
     36 H           2.6837    3.0112   45.9869 H       1  UNL         0.0288
     37 H           2.5841    5.3905   45.2319 H       1  UNL         0.0428
     38 H           0.9541    4.7144   45.4033 H       1  UNL         0.0428
     39 H           2.4726    4.9953   42.8884 H       1  UNL         0.1222
     40 H           0.5348    4.3208   41.7077 H       1  UNL         0.0428
     41 H          -0.3182    4.1223   43.2431 H       1  UNL         0.0428
     42 H           2.0633    2.4891   42.2156 H       1  UNL         0.0288
     43 H           0.4215    1.9001   42.4445 H       1  UNL         0.0288
     44 H          -3.2147   -1.8187   47.9577 H       1  UNL         0.0840
     45 H          -1.4064   -3.4370   48.6209 H       1  UNL         0.0639
     46 H           0.9445   -2.6062   48.8045 H       1  UNL         0.0627
     47 H           2.5394   -0.8605   48.6497 H       1  UNL         0.0280
     48 H           1.9313    0.7330   49.1093 H       1  UNL         0.0280
     49 H           2.1944    0.3346   47.3959 H       1  UNL         0.0280
@<TRIPOS>BOND
     1     1     2    1
     2     1    25    1
     3     1    26    1
     4     1    27    1
     5     2     3   ar
     6     2     7   ar
     7     3     4   ar
     8     3    28    1
     9     4     5   ar
    10     4    29    1
    11     5     6   ar
    12     5    30    1
    13     6     7   ar
    14     6    31    1
    15     7     8    1
    16     8     9    1
    17     8    18    1
    18     8    32    1
    19     9    10   am
    20     9    33    1
    21    10    11    2
    22    10    12    1
    23    12    13    1
    24    12    17    1
    25    12    34    1
    26    13    14    1
    27    13    35    1
    28    13    36    1
    29    14    15    1
    30    14    37    1
    31    14    38    1
    32    15    16    1
    33    15    39    1
    34    16    17    1
    35    16    40    1
    36    16    41    1
    37    17    42    1
    38    17    43    1
    39    18    19   ar
    40    18    23   ar
    41    19    20   ar
    42    20    21   ar
    43    20    44    1
    44    21    22   ar
    45    21    45    1
    46    22    23   ar
    47    22    46    1
    48    23    24    1
    49    24    47    1
    50    24    48    1
    51    24    49    1
@<TRIPOS>SUBSTRUCTURE
     1 UNL         1 TEMP              0 ****  ****    0 ROOT


##########                                Name:    ZINC000573650873
##########                DOCK_Rotatable_Bonds:                  10
##########                         Heavy_Atoms:                  28
##########                    Molecular_Weight:             418.843
##########                DOCK_Rotatable_Bonds:                  10
##########                       Formal_Charge:          -0.0500001
##########                     HBond_Acceptors:                   9
##########                        HBond_Donors:                   1
##########                         Heavy_Atoms:                  28
##########                          Grid_Score:          -29.719255
##########                     Grid_vdw_energy:          -30.258209
##########                      Grid_es_energy:            0.538954
##########           Internal_energy_repulsive:           11.971437

@<TRIPOS>MOLECULE
ZINC000573650873
 50 51 1 0 0
SMALL
USER_CHARGES


@<TRIPOS>ATOM
      1 C1        -15.5907    1.4931   64.8008 C.3     1  ZINC000573650873   -0.1400
      2 C2        -15.1353    1.6596   63.3496 C.3     1  ZINC000573650873    0.0100
      3 C3        -16.3077    2.1553   62.5008 C.3     1  ZINC000573650873   -0.1400
      4 C4        -13.9942    2.6769   63.2868 C.3     1  ZINC000573650873   -0.1500
      5 C5        -14.6558    0.3334   62.8183 C.2     1  ZINC000573650873   -0.0100
      6 C6        -14.5759   -0.0352   61.5188 C.2     1  ZINC000573650873   -0.1800
      7 C7        -14.0685   -1.3634   61.5702 C.2     1  ZINC000573650873   -0.0300
      8 C8        -13.7827   -2.2537   60.4188 C.2     1  ZINC000573650873    0.6000
      9 O9        -14.5953   -3.0921   60.0828 O.2     1  ZINC000573650873   -0.5100
     10 N10       -12.6215   -2.1326   59.7454 N.am    1  ZINC000573650873   -0.5900
     11 C11       -12.3392   -3.0120   58.6081 C.3     1  ZINC000573650873    0.1200
     12 C12       -13.2671   -2.6553   57.4451 C.3     1  ZINC000573650873   -0.1000
     13 C13       -12.4482   -2.4269   56.2009 C.ar    1  ZINC000573650873   -0.0800
     14 C14       -11.9566   -1.1659   55.9191 C.ar    1  ZINC000573650873   -0.1000
     15 C15       -11.2054   -0.9556   54.7781 C.ar    1  ZINC000573650873   -0.1100
     16 C16       -10.9455   -2.0075   53.9179 C.ar    1  ZINC000573650873   -0.0400
     17 Cl17      -10.0015   -1.7444   52.4849 Cl      1  ZINC000573650873   -0.0700
     18 C18       -11.4377   -3.2693   54.2003 C.ar    1  ZINC000573650873   -0.1100
     19 C19       -12.1840   -3.4794   55.3446 C.ar    1  ZINC000573650873   -0.1000
     20 C20       -11.6416   -1.1218   60.1506 C.3     1  ZINC000573650873    0.0700
     21 C21       -10.7769   -1.6757   61.2849 C.3     1  ZINC000573650873    0.0600
     22 H22       -11.4163   -2.1387   62.0364 H       1  ZINC000573650873    0.1400
     23 O23        -9.8731   -2.6513   60.7619 O.3     1  ZINC000573650873   -0.5200
     24 C24        -9.9823   -0.5351   61.9240 C.3     1  ZINC000573650873    0.4300
     25 F25        -9.1167   -1.0550   62.8924 F       1  ZINC000573650873   -0.1700
     26 F26        -9.2386    0.1240   60.9394 F       1  ZINC000573650873   -0.1700
     27 F27       -10.8651    0.3688   62.5247 F       1  ZINC000573650873   -0.1800
     28 N28       -13.9042   -1.6411   62.8397 N.2     1  ZINC000573650873   -0.3400
     29 O29       -14.2201   -0.7080   63.5407 O.3     1  ZINC000573650873    0.1300
     30 H30       -16.4037    0.7683   64.8455 H       1  ZINC000573650873    0.0600
     31 H31       -14.7554    1.1400   65.4055 H       1  ZINC000573650873    0.0600
     32 H32       -15.9375    2.4523   65.1851 H       1  ZINC000573650873    0.0700
     33 H33       -16.6545    3.1144   62.8851 H       1  ZINC000573650873    0.0700
     34 H34       -15.9831    2.2739   61.4670 H       1  ZINC000573650873    0.0600
     35 H35       -17.1207    1.4305   62.5455 H       1  ZINC000573650873    0.0600
     36 H36       -13.1589    2.3238   63.8916 H       1  ZINC000573650873    0.0600
     37 H37       -13.6696    2.7955   62.2531 H       1  ZINC000573650873    0.0600
     38 H38       -14.3410    3.6360   63.6712 H       1  ZINC000573650873    0.0700
     39 H39       -14.8369    0.5441   60.6454 H       1  ZINC000573650873    0.1800
     40 H40       -11.3022   -2.8834   58.2981 H       1  ZINC000573650873    0.0900
     41 H41       -12.5052   -4.0488   58.9006 H       1  ZINC000573650873    0.1000
     42 H42       -13.9668   -3.4736   57.2744 H       1  ZINC000573650873    0.0800
     43 H43       -13.8210   -1.7483   57.6871 H       1  ZINC000573650873    0.0800
     44 H44       -12.1600   -0.3447   56.5906 H       1  ZINC000573650873    0.1300
     45 H45       -10.8218    0.0296   54.5580 H       1  ZINC000573650873    0.1300
     46 H46       -11.2353   -4.0908   53.5291 H       1  ZINC000573650873    0.1300
     47 H47       -12.5680   -4.4645   55.5654 H       1  ZINC000573650873    0.1300
     48 H48       -11.0078   -0.8689   59.3008 H       1  ZINC000573650873    0.1000
     49 H49       -12.1624   -0.2280   60.4941 H       1  ZINC000573650873    0.1200
     50 H50        -9.3954   -3.1485   61.4400 H       1  ZINC000573650873    0.3900
@<TRIPOS>BOND
     1     1     2    1
     2     1    30    1
     3     1    31    1
     4     1    32    1
     5     2     3    1
     6     2     4    1
     7     2     5    1
     8     3    33    1
     9     3    34    1
    10     3    35    1
    11     4    36    1
    12     4    37    1
    13     4    38    1
    14     5    29    1
    15     5     6    2
    16     6     7    1
    17     6    39    1
    18     7     8    1
    19     7    28    2
    20     8     9    2
    21     8    10   am
    22    10    11    1
    23    10    20    1
    24    11    12    1
    25    11    40    1
    26    11    41    1
    27    12    13    1
    28    12    42    1
    29    12    43    1
    30    13    19   ar
    31    13    14   ar
    32    14    15   ar
    33    14    44    1
    34    15    16   ar
    35    15    45    1
    36    16    17    1
    37    16    18   ar
    38    18    19   ar
    39    18    46    1
    40    19    47    1
    41    20    21    1
    42    20    48    1
    43    20    49    1
    44    21    22    1
    45    21    23    1
    46    21    24    1
    47    23    50    1
    48    24    25    1
    49    24    26    1
    50    24    27    1
    51    28    29    1
@<TRIPOS>SUBSTRUCTURE
     1 ZINC000573650873        1 TEMP              0 ****  ****    0 ROOT


##########                                Name:    ZINC001456607258
##########                DOCK_Rotatable_Bonds:                   9
##########                         Heavy_Atoms:                  25
##########                    Molecular_Weight:             339.437
##########                DOCK_Rotatable_Bonds:                   9
##########                       Formal_Charge:          -0.0200009
##########                     HBond_Acceptors:                   5
##########                        HBond_Donors:                   2
##########                         Heavy_Atoms:                  25
##########                          Grid_Score:          -29.711809
##########                     Grid_vdw_energy:          -27.744463
##########                      Grid_es_energy:           -1.967346
##########           Internal_energy_repulsive:           40.826340

@<TRIPOS>MOLECULE
ZINC001456607258
 50 52 1 0 0
SMALL
USER_CHARGES


@<TRIPOS>ATOM
      1 C1         -1.0249   -2.5632   48.4377 C.3     1  ZINC001456607258   -0.1600
      2 C2         -1.8239   -1.4668   47.7300 C.3     1  ZINC001456607258   -0.1100
      3 C3         -1.3059   -0.0953   48.1675 C.3     1  ZINC001456607258   -0.1000
      4 H4         -1.2318   -0.0646   49.2545 H       1  ZINC001456607258    0.0900
      5 C5         -2.2729    0.9907   47.6914 C.3     1  ZINC001456607258   -0.0700
      6 C6         -2.1297    2.2094   48.5662 C.ar    1  ZINC001456607258   -0.0800
      7 C7         -1.2536    3.2173   48.2093 C.ar    1  ZINC001456607258   -0.1200
      8 C8         -1.1222    4.3352   49.0118 C.ar    1  ZINC001456607258   -0.1200
      9 C9         -1.8672    4.4453   50.1710 C.ar    1  ZINC001456607258   -0.1200
     10 C10        -2.7440    3.4378   50.5274 C.ar    1  ZINC001456607258   -0.1200
     11 C11        -2.8786    2.3219   49.7227 C.ar    1  ZINC001456607258   -0.1200
     12 C12         0.0543    0.1437   47.5642 C.2     1  ZINC001456607258    0.5200
     13 O13         0.1612    0.3583   46.3754 O.2     1  ZINC001456607258   -0.5300
     14 N14         1.1520    0.1190   48.3459 N.am    1  ZINC001456607258   -0.7300
     15 C15         2.4742    0.3513   47.7595 C.3     1  ZINC001456607258    0.1300
     16 C16         2.7935    1.8471   47.7981 C.3     1  ZINC001456607258   -0.1400
     17 C17         3.8321    2.2864   46.7502 C.3     1  ZINC001456607258    0.1100
     18 N18         2.9648    3.4598   46.5292 N.am    1  ZINC001456607258   -0.6500
     19 C19         3.1661    4.7092   46.0655 C.2     1  ZINC001456607258    0.6100
     20 O20         4.2790    5.0577   45.7201 O.2     1  ZINC001456607258   -0.5400
     21 C21         2.0386    5.6524   45.9772 C.2     1  ZINC001456607258   -0.2300
     22 C22         0.7385    5.4146   46.3293 C.2     1  ZINC001456607258    0.0400
     23 N23         0.0238    6.5316   46.0955 N.pl3   1  ZINC001456607258   -0.5500
     24 C24         0.8286    7.5118   45.5920 C.2     1  ZINC001456607258   -0.0200
     25 C25         2.0841    7.0386   45.4997 C.2     1  ZINC001456607258   -0.1400
     26 C26         1.7886    2.7156   47.0197 C.3     1  ZINC001456607258    0.1100
     27 H27        -1.4524   -3.5368   48.1976 H       1  ZINC001456607258    0.0600
     28 H28         0.0123   -2.5296   48.1043 H       1  ZINC001456607258    0.0600
     29 H29        -1.0656   -2.4044   49.5152 H       1  ZINC001456607258    0.0600
     30 H30        -1.7082   -1.5718   46.6513 H       1  ZINC001456607258    0.0800
     31 H31        -2.8778   -1.5581   47.9930 H       1  ZINC001456607258    0.0700
     32 H32        -2.0425    1.2551   46.6593 H       1  ZINC001456607258    0.0800
     33 H33        -3.2956    0.6184   47.7516 H       1  ZINC001456607258    0.0900
     34 H34        -0.6715    3.1313   47.3036 H       1  ZINC001456607258    0.1200
     35 H35        -0.4372    5.1224   48.7333 H       1  ZINC001456607258    0.1200
     36 H36        -1.7640    5.3183   50.7984 H       1  ZINC001456607258    0.1200
     37 H37        -3.3258    3.5236   51.4333 H       1  ZINC001456607258    0.1200
     38 H38        -3.5636    1.5347   50.0011 H       1  ZINC001456607258    0.1200
     39 H39         1.0664   -0.0526   49.2968 H       1  ZINC001456607258    0.4000
     40 H40         3.2256   -0.1953   48.3295 H       1  ZINC001456607258    0.0700
     41 H41         2.4792    0.0052   46.7260 H       1  ZINC001456607258    0.0800
     42 H42         3.0014    2.2115   48.8041 H       1  ZINC001456607258    0.1100
     43 H43         4.8059    2.5333   47.1734 H       1  ZINC001456607258    0.0800
     44 H44         3.8974    1.6200   45.8901 H       1  ZINC001456607258    0.0900
     45 H45         0.3510    4.4883   46.7271 H       1  ZINC001456607258    0.1700
     46 H46        -0.9273    6.6259   46.2609 H       1  ZINC001456607258    0.4200
     47 H47         0.5104    8.5066   45.3175 H       1  ZINC001456607258    0.1700
     48 H48         2.9516    7.5709   45.1386 H       1  ZINC001456607258    0.1500
     49 H49         1.2535    2.1754   46.2388 H       1  ZINC001456607258    0.0900
     50 H50         1.1306    3.3053   47.6582 H       1  ZINC001456607258    0.0900
@<TRIPOS>BOND
     1     1     2    1
     2     1    27    1
     3     1    28    1
     4     1    29    1
     5     2     3    1
     6     2    30    1
     7     2    31    1
     8     3     4    1
     9     3     5    1
    10     3    12    1
    11     5     6    1
    12     5    32    1
    13     5    33    1
    14     6    11   ar
    15     6     7   ar
    16     7     8   ar
    17     7    34    1
    18     8     9   ar
    19     8    35    1
    20     9    10   ar
    21     9    36    1
    22    10    11   ar
    23    10    37    1
    24    11    38    1
    25    12    13    2
    26    12    14   am
    27    14    15    1
    28    14    39    1
    29    15    16    1
    30    15    40    1
    31    15    41    1
    32    16    26    1
    33    16    17    1
    34    16    42    1
    35    17    18    1
    36    17    43    1
    37    17    44    1
    38    18    19   am
    39    18    26    1
    40    19    20    2
    41    19    21    1
    42    21    25    1
    43    21    22    2
    44    22    23    1
    45    22    45    1
    46    23    24    1
    47    23    46    1
    48    24    25    2
    49    24    47    1
    50    25    48    1
    51    26    49    1
    52    26    50    1
@<TRIPOS>SUBSTRUCTURE
     1 ZINC001456607258        1 TEMP              0 ****  ****    0 ROOT


##########                                Name:    ZINC001045438664
##########                DOCK_Rotatable_Bonds:                   6
##########                         Heavy_Atoms:                  26
##########                    Molecular_Weight:             352.439
##########                DOCK_Rotatable_Bonds:                   6
##########                       Formal_Charge:          -0.0099999
##########                     HBond_Acceptors:                   7
##########                        HBond_Donors:                   2
##########                         Heavy_Atoms:                  26
##########                          Grid_Score:          -29.683500
##########                     Grid_vdw_energy:          -29.389332
##########                      Grid_es_energy:           -0.294168
##########           Internal_energy_repulsive:            9.452459

@<TRIPOS>MOLECULE
ZINC001045438664
 50 53 1 0 0
SMALL
USER_CHARGES


@<TRIPOS>ATOM
      1 C1          0.5213    3.9919   46.3057 C.3     1  ZINC001045438664   -0.1100
      2 C2         -0.2548    3.2021   47.3280 C.ar    1  ZINC001045438664    0.2100
      3 C3         -0.2312    3.5684   48.6590 C.ar    1  ZINC001045438664   -0.3000
      4 C4         -0.9665    2.8062   49.5695 C.ar    1  ZINC001045438664    0.4500
      5 N5         -0.9755    3.1333   50.9157 N.pl3   1  ZINC001045438664   -0.7100
      6 C6         -2.2478    3.3573   51.6066 C.3     1  ZINC001045438664    0.1500
      7 H7         -2.7420    2.4008   51.7769 H       1  ZINC001045438664    0.0900
      8 C8         -3.1453    4.2489   50.7463 C.3     1  ZINC001045438664   -0.1300
      9 C9         -4.4740    4.4828   51.4678 C.3     1  ZINC001045438664   -0.1200
     10 C10        -4.2115    5.1675   52.8106 C.3     1  ZINC001045438664   -0.1200
     11 C11        -3.3140    4.2757   53.6710 C.3     1  ZINC001045438664   -0.1300
     12 C12        -1.9853    4.0419   52.9494 C.3     1  ZINC001045438664    0.1400
     13 H13        -1.4911    4.9984   52.7791 H       1  ZINC001045438664    0.1000
     14 N14        -1.1259    3.1881   53.7731 N.am    1  ZINC001045438664   -0.7200
     15 C15         0.2037    3.4055   53.8099 C.2     1  ZINC001045438664    0.5700
     16 O16         0.6900    4.3092   53.1584 O.2     1  ZINC001045438664   -0.5200
     17 C17         1.0707    2.5450   54.6425 C.ar    1  ZINC001045438664   -0.2500
     18 C18         0.5220    1.5740   55.4878 C.ar    1  ZINC001045438664    0.1900
     19 N19         1.3342    0.8263   56.2143 N.ar    1  ZINC001045438664   -0.5200
     20 C20         2.6417    0.9852   56.1504 C.ar    1  ZINC001045438664    0.3200
     21 N21         3.2003    1.8879   55.3682 N.ar    1  ZINC001045438664   -0.5200
     22 C22         2.4637    2.6744   54.6034 C.ar    1  ZINC001045438664    0.2100
     23 N23        -1.6582    1.7619   49.1234 N.ar    1  ZINC001045438664   -0.5800
     24 C24        -1.6521    1.4483   47.8435 C.ar    1  ZINC001045438664    0.4000
     25 C25        -2.4494    0.2575   47.3772 C.3     1  ZINC001045438664   -0.1100
     26 C26        -1.9765   -0.4566   46.1094 C.3     1  ZINC001045438664   -0.1500
     27 C27        -1.7873   -1.1183   47.4758 C.3     1  ZINC001045438664   -0.1500
     28 N28        -0.9728    2.1503   46.9592 N.ar    1  ZINC001045438664   -0.5600
     29 H29        -0.1065    4.7907   45.9107 H       1  ZINC001045438664    0.0800
     30 H30         1.4057    4.4232   46.7747 H       1  ZINC001045438664    0.0800
     31 H31         0.8258    3.3333   45.4924 H       1  ZINC001045438664    0.0800
     32 H32         0.3418    4.4228   48.9879 H       1  ZINC001045438664    0.1400
     33 H33        -0.1393    3.2141   51.4007 H       1  ZINC001045438664    0.4100
     34 H34        -2.6511    5.2054   50.5759 H       1  ZINC001045438664    0.0700
     35 H35        -3.3323    3.7611   49.7896 H       1  ZINC001045438664    0.0700
     36 H36        -5.1134    5.1181   50.8550 H       1  ZINC001045438664    0.0700
     37 H37        -4.9682    3.5263   51.6382 H       1  ZINC001045438664    0.0700
     38 H38        -3.7172    6.1240   52.6404 H       1  ZINC001045438664    0.0700
     39 H39        -5.1581    5.3341   53.3248 H       1  ZINC001045438664    0.0700
     40 H40        -3.1270    4.7636   54.6277 H       1  ZINC001045438664    0.0800
     41 H41        -3.8082    3.3193   53.8413 H       1  ZINC001045438664    0.0700
     42 H42        -1.5138    2.4661   54.2920 H       1  ZINC001045438664    0.4000
     43 H43        -0.5479    1.4381   55.5458 H       1  ZINC001045438664    0.1700
     44 H44         3.2751    0.3563   56.7584 H       1  ZINC001045438664    0.2100
     45 H45         2.9286    3.4113   53.9653 H       1  ZINC001045438664    0.1800
     46 H46        -3.5236    0.3128   47.5532 H       1  ZINC001045438664    0.1300
     47 H47        -2.7399   -0.8711   45.4509 H       1  ZINC001045438664    0.1000
     48 H48        -1.0889   -0.0651   45.6125 H       1  ZINC001045438664    0.1100
     49 H49        -0.7752   -1.1622   47.8779 H       1  ZINC001045438664    0.1000
     50 H50        -2.4261   -1.9682   47.7163 H       1  ZINC001045438664    0.1000
@<TRIPOS>BOND
     1     1     2    1
     2     1    29    1
     3     1    30    1
     4     1    31    1
     5     2    28   ar
     6     2     3   ar
     7     3     4   ar
     8     3    32    1
     9     4     5    1
    10     4    23   ar
    11     5     6    1
    12     5    33    1
    13     6     7    1
    14     6    12    1
    15     6     8    1
    16     8     9    1
    17     8    34    1
    18     8    35    1
    19     9    10    1
    20     9    36    1
    21     9    37    1
    22    10    11    1
    23    10    38    1
    24    10    39    1
    25    11    12    1
    26    11    40    1
    27    11    41    1
    28    12    13    1
    29    12    14    1
    30    14    15   am
    31    14    42    1
    32    15    16    2
    33    15    17    1
    34    17    22   ar
    35    17    18   ar
    36    18    19   ar
    37    18    43    1
    38    19    20   ar
    39    20    21   ar
    40    20    44    1
    41    21    22   ar
    42    22    45    1
    43    23    24   ar
    44    24    25    1
    45    24    28   ar
    46    25    27    1
    47    25    26    1
    48    25    46    1
    49    26    27    1
    50    26    47    1
    51    26    48    1
    52    27    49    1
    53    27    50    1
@<TRIPOS>SUBSTRUCTURE
     1 ZINC001045438664        1 TEMP              0 ****  ****    0 ROOT


##########                                Name:    ZINC000929592477
##########                DOCK_Rotatable_Bonds:                   7
##########                         Heavy_Atoms:                  28
##########                    Molecular_Weight:             399.517
##########                DOCK_Rotatable_Bonds:                   7
##########                       Formal_Charge:         -8.9407e-08
##########                     HBond_Acceptors:                   8
##########                        HBond_Donors:                   3
##########                         Heavy_Atoms:                  28
##########                          Grid_Score:          -29.679192
##########                     Grid_vdw_energy:          -30.176018
##########                      Grid_es_energy:            0.496827
##########           Internal_energy_repulsive:           14.759529

@<TRIPOS>MOLECULE
ZINC000929592477
 53 56 1 0 0
SMALL
USER_CHARGES


@<TRIPOS>ATOM
      1 O1         -3.4148    4.6800   52.3856 O.2     1  ZINC000929592477   -0.5700
      2 C2         -2.6895    4.1394   53.1983 C.2     1  ZINC000929592477    0.7100
      3 N3         -1.6863    3.3421   52.7808 N.am    1  ZINC000929592477   -0.6800
      4 C4         -1.4825    3.1313   51.4099 C.ar    1  ZINC000929592477    0.1600
      5 C5         -0.3281    3.6031   50.7993 C.ar    1  ZINC000929592477   -0.1300
      6 C6         -0.1271    3.3962   49.4492 C.ar    1  ZINC000929592477   -0.0800
      7 C7         -1.0800    2.7154   48.7016 C.ar    1  ZINC000929592477   -0.1000
      8 S8         -0.8238    2.4504   46.9786 S.3     1  ZINC000929592477   -0.1100
      9 C9         -0.4929    0.6693   46.8844 C.3     1  ZINC000929592477   -0.0800
     10 C10         0.0903    0.1547   48.2239 C.3     1  ZINC000929592477   -0.1200
     11 C11        -0.2604   -1.3536   48.1923 C.3     1  ZINC000929592477   -0.1200
     12 C12        -1.6621   -1.4028   47.5501 C.3     1  ZINC000929592477   -0.1200
     13 C13        -1.8099   -0.1166   46.7184 C.3     1  ZINC000929592477   -0.1000
     14 C14        -2.2347    2.2430   49.3131 C.ar    1  ZINC000929592477   -0.1200
     15 C15        -2.4323    2.4459   50.6643 C.ar    1  ZINC000929592477   -0.1000
     16 N16        -2.8855    4.3420   54.5163 N.am    1  ZINC000929592477   -0.7300
     17 C17        -3.9760    5.2087   54.9700 C.3     1  ZINC000929592477    0.1500
     18 H18        -4.1619    6.0028   54.2470 H       1  ZINC000929592477    0.1200
     19 C19        -3.6599    5.8023   56.3682 C.3     1  ZINC000929592477   -0.1400
     20 C20        -4.0994    4.6477   57.3029 C.3     1  ZINC000929592477    0.1100
     21 N21        -5.2996    4.0798   56.6624 N.pl3   1  ZINC000929592477   -0.6000
     22 C22        -6.2983    3.3775   57.3054 C.2     1  ZINC000929592477    0.4600
     23 C23        -7.1959    4.0372   58.1283 C.2     1  ZINC000929592477   -0.4000
     24 C24        -8.1954    3.2869   58.7629 C.2     1  ZINC000929592477    0.5300
     25 O25        -9.0078    3.8274   59.4964 O.2     1  ZINC000929592477   -0.5500
     26 N26        -8.2427    1.9556   58.5473 N.am    1  ZINC000929592477   -0.6400
     27 C27        -7.3425    1.3657   57.7357 C.2     1  ZINC000929592477    0.4100
     28 N28        -6.4098    2.0509   57.1335 N.2     1  ZINC000929592477   -0.5700
     29 C29        -5.2582    4.3872   55.2204 C.3     1  ZINC000929592477    0.1100
     30 H30        -1.1053    2.9140   53.4290 H       1  ZINC000929592477    0.4100
     31 H31         0.4124    4.1323   51.3804 H       1  ZINC000929592477    0.1300
     32 H32         0.7704    3.7638   48.9742 H       1  ZINC000929592477    0.1300
     33 H33         0.1875    0.4517   46.0612 H       1  ZINC000929592477    0.1000
     34 H34         1.1701    0.2997   48.2561 H       1  ZINC000929592477    0.0700
     35 H35        -0.3919    0.6458   49.0692 H       1  ZINC000929592477    0.0800
     36 H36         0.4585   -1.8997   47.5815 H       1  ZINC000929592477    0.0700
     37 H37        -0.2896   -1.7597   49.2034 H       1  ZINC000929592477    0.0700
     38 H38        -1.7464   -2.2768   46.9041 H       1  ZINC000929592477    0.0700
     39 H39        -2.4272   -1.4360   48.3256 H       1  ZINC000929592477    0.0700
     40 H40        -2.6468    0.4745   47.0905 H       1  ZINC000929592477    0.0700
     41 H41        -1.9659   -0.3664   45.6691 H       1  ZINC000929592477    0.0800
     42 H42        -2.9756    1.7137   48.7324 H       1  ZINC000929592477    0.1300
     43 H43        -3.3297    2.0784   51.1398 H       1  ZINC000929592477    0.1400
     44 H44        -2.3045    3.9139   55.1644 H       1  ZINC000929592477    0.4000
     45 H45        -2.5944    6.0066   56.4741 H       1  ZINC000929592477    0.0900
     46 H46        -4.2486    6.7006   56.5535 H       1  ZINC000929592477    0.0900
     47 H47        -3.3139    3.8952   57.3714 H       1  ZINC000929592477    0.0700
     48 H48        -4.3441    5.0332   58.2926 H       1  ZINC000929592477    0.0800
     49 H49        -7.1272    5.1046   58.2777 H       1  ZINC000929592477    0.1500
     50 H50        -8.9274    1.4207   58.9785 H       1  ZINC000929592477    0.4200
     51 H51        -7.3973    0.2989   57.5765 H       1  ZINC000929592477    0.2100
     52 H52        -6.1356    4.9701   54.9403 H       1  ZINC000929592477    0.0900
     53 H53        -5.2259    3.4621   54.6450 H       1  ZINC000929592477    0.0800
@<TRIPOS>BOND
     1     1     2    2
     2     2     3   am
     3     2    16   am
     4     3     4    1
     5     3    30    1
     6     4    15   ar
     7     4     5   ar
     8     5     6   ar
     9     5    31    1
    10     6     7   ar
    11     6    32    1
    12     7     8    1
    13     7    14   ar
    14     8     9    1
    15     9    13    1
    16     9    10    1
    17     9    33    1
    18    10    11    1
    19    10    34    1
    20    10    35    1
    21    11    12    1
    22    11    36    1
    23    11    37    1
    24    12    13    1
    25    12    38    1
    26    12    39    1
    27    13    40    1
    28    13    41    1
    29    14    15   ar
    30    14    42    1
    31    15    43    1
    32    16    17    1
    33    16    44    1
    34    17    18    1
    35    17    29    1
    36    17    19    1
    37    19    20    1
    38    19    45    1
    39    19    46    1
    40    20    21    1
    41    20    47    1
    42    20    48    1
    43    21    22    1
    44    21    29    1
    45    22    28    1
    46    22    23    2
    47    23    24    1
    48    23    49    1
    49    24    25    2
    50    24    26   am
    51    26    27    1
    52    26    50    1
    53    27    28    2
    54    27    51    1
    55    29    52    1
    56    29    53    1
@<TRIPOS>SUBSTRUCTURE
     1 ZINC000929592477        1 TEMP              0 ****  ****    0 ROOT


##########                                Name:    ZINC001271977984
##########                DOCK_Rotatable_Bonds:                   7
##########                         Heavy_Atoms:                  24
##########                    Molecular_Weight:             328.371
##########                DOCK_Rotatable_Bonds:                   7
##########                       Formal_Charge:           0.0200001
##########                     HBond_Acceptors:                   7
##########                        HBond_Donors:                   0
##########                         Heavy_Atoms:                  24
##########                          Grid_Score:          -29.676466
##########                     Grid_vdw_energy:          -29.204731
##########                      Grid_es_energy:           -0.471735
##########           Internal_energy_repulsive:           18.883615

@<TRIPOS>MOLECULE
ZINC001271977984
 44 46 1 0 0
SMALL
USER_CHARGES


@<TRIPOS>ATOM
      1 C1        -15.2407   -1.6743   59.0592 C.3     1  ZINC001271977984   -0.1800
      2 C2        -13.8962   -2.3868   59.2201 C.3     1  ZINC001271977984    0.1700
      3 H3        -14.0657   -3.4536   59.3661 H       1  ZINC001271977984    0.1100
      4 C4        -13.0641   -2.1751   57.9817 C.2     1  ZINC001271977984    0.2700
      5 N5        -12.7105   -3.1133   57.1557 N.2     1  ZINC001271977984   -0.4700
      6 C6        -11.9690   -2.5617   56.1570 C.ar    1  ZINC001271977984    0.0200
      7 C7        -11.3395   -3.0773   55.0234 C.ar    1  ZINC001271977984   -0.0600
      8 C8        -10.6454   -2.2340   54.1845 C.ar    1  ZINC001271977984   -0.1200
      9 C9        -10.5685   -0.8769   54.4596 C.ar    1  ZINC001271977984   -0.0900
     10 C10       -11.1856   -0.3535   55.5768 C.ar    1  ZINC001271977984   -0.0900
     11 C11       -11.8889   -1.1876   56.4319 C.ar    1  ZINC001271977984    0.0100
     12 O12       -12.5873   -0.9893   57.5714 O.3     1  ZINC001271977984   -0.2100
     13 N13       -13.1884   -1.8394   60.3852 N.3     1  ZINC001271977984   -0.5300
     14 C14       -13.8639   -2.2132   61.6350 C.3     1  ZINC001271977984    0.0000
     15 C15       -11.7836   -2.2687   60.3973 C.3     1  ZINC001271977984    0.0400
     16 C16       -10.9024   -1.1455   59.8470 C.3     1  ZINC001271977984    0.1200
     17 N17        -9.7779   -0.9164   60.7577 N.am    1  ZINC001271977984   -0.6000
     18 C18        -8.4260   -1.3265   60.3698 C.3     1  ZINC001271977984    0.0800
     19 C19        -9.9870   -0.3284   61.9522 C.2     1  ZINC001271977984    0.6000
     20 O20       -11.1093    0.0120   62.2741 O.2     1  ZINC001271977984   -0.5300
     21 C21        -8.8555   -0.0978   62.8684 C.2     1  ZINC001271977984   -0.0800
     22 C22        -7.7638    0.6777   62.6259 C.2     1  ZINC001271977984    0.0200
     23 O23        -6.9855    0.6105   63.7178 O.3     1  ZINC001271977984   -0.2000
     24 C24        -7.5853   -0.1885   64.6116 C.2     1  ZINC001271977984    0.1800
     25 N25        -8.7087   -0.6158   64.1181 N.2     1  ZINC001271977984   -0.4600
     26 H26       -15.8425   -1.8274   59.9549 H       1  ZINC001271977984    0.0800
     27 H27       -15.0713   -0.6075   58.9132 H       1  ZINC001271977984    0.0800
     28 H28       -15.7660   -2.0804   58.1948 H       1  ZINC001271977984    0.0700
     29 H29       -11.3961   -4.1335   54.8049 H       1  ZINC001271977984    0.1400
     30 H30       -10.1575   -2.6321   53.3070 H       1  ZINC001271977984    0.1400
     31 H31       -10.0213   -0.2253   53.7945 H       1  ZINC001271977984    0.1400
     32 H32       -11.1214    0.7044   55.7846 H       1  ZINC001271977984    0.1400
     33 H33       -13.8922   -3.2994   61.7219 H       1  ZINC001271977984    0.0300
     34 H34       -13.3192   -1.7951   62.4814 H       1  ZINC001271977984    0.0700
     35 H35       -14.8815   -1.8225   61.6289 H       1  ZINC001271977984    0.1100
     36 H36       -11.4828   -2.4989   61.4194 H       1  ZINC001271977984    0.0500
     37 H37       -11.6698   -3.1573   59.7762 H       1  ZINC001271977984    0.0800
     38 H38       -10.5230   -1.4293   58.8653 H       1  ZINC001271977984    0.0900
     39 H39       -11.4906   -0.2321   59.7591 H       1  ZINC001271977984    0.0900
     40 H40        -7.9008   -0.4782   59.9308 H       1  ZINC001271977984    0.0600
     41 H41        -7.8847   -1.6728   61.2502 H       1  ZINC001271977984    0.0900
     42 H42        -8.4865   -2.1337   59.6397 H       1  ZINC001271977984    0.0700
     43 H43        -7.5618    1.2400   61.7263 H       1  ZINC001271977984    0.2300
     44 H44        -7.1976   -0.4352   65.5890 H       1  ZINC001271977984    0.2600
@<TRIPOS>BOND
     1     1     2    1
     2     1    26    1
     3     1    27    1
     4     1    28    1
     5     2     3    1
     6     2     4    1
     7     2    13    1
     8     4    12    1
     9     4     5    2
    10     5     6    1
    11     6    11   ar
    12     6     7   ar
    13     7     8   ar
    14     7    29    1
    15     8     9   ar
    16     8    30    1
    17     9    10   ar
    18     9    31    1
    19    10    11   ar
    20    10    32    1
    21    11    12    1
    22    13    14    1
    23    13    15    1
    24    14    33    1
    25    14    34    1
    26    14    35    1
    27    15    16    1
    28    15    36    1
    29    15    37    1
    30    16    17    1
    31    16    38    1
    32    16    39    1
    33    17    18    1
    34    17    19   am
    35    18    40    1
    36    18    41    1
    37    18    42    1
    38    19    20    2
    39    19    21    1
    40    21    25    1
    41    21    22    2
    42    22    23    1
    43    22    43    1
    44    23    24    1
    45    24    25    2
    46    24    44    1
@<TRIPOS>SUBSTRUCTURE
     1 ZINC001271977984        1 TEMP              0 ****  ****    0 ROOT


##########                                Name:    ZINC000433533595
##########                DOCK_Rotatable_Bonds:                  10
##########                         Heavy_Atoms:                  24
##########                    Molecular_Weight:             397.312
##########                DOCK_Rotatable_Bonds:                  10
##########                       Formal_Charge:          0.00999916
##########                     HBond_Acceptors:                   5
##########                        HBond_Donors:                   1
##########                         Heavy_Atoms:                  24
##########                          Grid_Score:          -29.666210
##########                     Grid_vdw_energy:          -27.981407
##########                      Grid_es_energy:           -1.684803
##########           Internal_energy_repulsive:           13.538886

@<TRIPOS>MOLECULE
ZINC000433533595
 49 50 1 0 0
SMALL
USER_CHARGES


@<TRIPOS>ATOM
      1 C1         -4.4027    3.0359   56.9205 C.3     1  ZINC000433533595   -0.1500
      2 C2         -5.9111    3.1556   57.1465 C.3     1  ZINC000433533595   -0.1200
      3 C3         -6.6547    2.4489   56.0112 C.3     1  ZINC000433533595   -0.1300
      4 C4         -8.1615    2.5213   56.2657 C.3     1  ZINC000433533595    0.1000
      5 N5         -8.8741    1.8584   55.1706 N.am    1  ZINC000433533595   -0.5500
      6 C6         -9.8401    0.9587   55.4423 C.2     1  ZINC000433533595    0.5100
      7 O7        -10.4304    0.4096   54.5352 O.2     1  ZINC000433533595   -0.5100
      8 C8        -10.1842    0.6375   56.8596 C.2     1  ZINC000433533595    0.5000
      9 O9        -10.8176    1.4309   57.5251 O.2     1  ZINC000433533595   -0.4900
     10 N10        -9.7913   -0.5331   57.3997 N.am    1  ZINC000433533595   -0.6300
     11 C11       -10.1136   -0.8339   58.7271 C.ar    1  ZINC000433533595    0.1200
     12 C12        -9.2506   -0.4721   59.7516 C.ar    1  ZINC000433533595   -0.0600
     13 C13        -9.5716   -0.7708   61.0631 C.ar    1  ZINC000433533595   -0.1100
     14 Br14       -8.3948   -0.2765   62.4583 Br      1  ZINC000433533595   -0.0400
     15 C15       -10.7520   -1.4298   61.3568 C.ar    1  ZINC000433533595   -0.0600
     16 C16       -11.6167   -1.7934   60.3408 C.ar    1  ZINC000433533595   -0.1900
     17 C17       -11.3053   -1.4929   59.0250 C.ar    1  ZINC000433533595    0.1300
     18 O18       -12.1550   -1.8499   58.0252 O.3     1  ZINC000433533595   -0.3100
     19 C19       -12.4921   -3.2349   57.9238 C.3     1  ZINC000433533595    0.0800
     20 C20       -13.9488   -3.4374   58.3458 C.3     1  ZINC000433533595   -0.1500
     21 C21       -12.3109   -3.6993   56.4774 C.3     1  ZINC000433533595   -0.1800
     22 C22        -8.5366    2.1735   53.7803 C.3     1  ZINC000433533595    0.0600
     23 C23        -9.6162    2.8394   52.9248 C.3     1  ZINC000433533595   -0.1900
     24 C24        -8.4096    3.6505   53.4015 C.3     1  ZINC000433533595   -0.1800
     25 H25        -4.1397    3.4998   55.9699 H       1  ZINC000433533595    0.0500
     26 H26        -3.8731    3.5394   57.7293 H       1  ZINC000433533595    0.0500
     27 H27        -4.1207    1.9831   56.9014 H       1  ZINC000433533595    0.0500
     28 H28        -6.1741    2.6917   58.0971 H       1  ZINC000433533595    0.0700
     29 H29        -6.1933    4.2083   57.1656 H       1  ZINC000433533595    0.0600
     30 H30        -6.4220    2.9374   55.0650 H       1  ZINC000433533595    0.0600
     31 H31        -6.3433    1.4052   55.9674 H       1  ZINC000433533595    0.0700
     32 H32        -8.3957    2.0224   57.2061 H       1  ZINC000433533595    0.1100
     33 H33        -8.4709    3.5650   56.3212 H       1  ZINC000433533595    0.0800
     34 H34        -9.2851   -1.1670   56.8679 H       1  ZINC000433533595    0.4300
     35 H35        -8.3284    0.0422   59.5249 H       1  ZINC000433533595    0.1600
     36 H36       -10.9985   -1.6614   62.3825 H       1  ZINC000433533595    0.1400
     37 H37       -12.5372   -2.3078   60.5737 H       1  ZINC000433533595    0.1500
     38 H38       -11.8406   -3.8161   58.5764 H       1  ZINC000433533595    0.0800
     39 H39       -14.6002   -2.8562   57.6932 H       1  ZINC000433533595    0.0700
     40 H40       -14.2059   -4.4938   58.2685 H       1  ZINC000433533595    0.0800
     41 H41       -14.0779   -3.1065   59.3763 H       1  ZINC000433533595    0.0700
     42 H42       -12.9624   -3.1180   55.8248 H       1  ZINC000433533595    0.0700
     43 H43       -11.2731   -3.5550   56.1767 H       1  ZINC000433533595    0.0600
     44 H44       -12.5680   -4.7557   56.4000 H       1  ZINC000433533595    0.0800
     45 H45        -7.8674    1.4683   53.2875 H       1  ZINC000433533595    0.1400
     46 H46        -9.6576    2.5722   51.8689 H       1  ZINC000433533595    0.0900
     47 H47       -10.5776    3.0431   53.3964 H       1  ZINC000433533595    0.1400
     48 H48        -8.5772    4.3876   54.1868 H       1  ZINC000433533595    0.1000
     49 H49        -7.6572    3.9168   52.6593 H       1  ZINC000433533595    0.1000
@<TRIPOS>BOND
     1     1     2    1
     2     1    25    1
     3     1    26    1
     4     1    27    1
     5     2     3    1
     6     2    28    1
     7     2    29    1
     8     3     4    1
     9     3    30    1
    10     3    31    1
    11     4     5    1
    12     4    32    1
    13     4    33    1
    14     5     6   am
    15     5    22    1
    16     6     7    2
    17     6     8    1
    18     8     9    2
    19     8    10   am
    20    10    11    1
    21    10    34    1
    22    11    17   ar
    23    11    12   ar
    24    12    13   ar
    25    12    35    1
    26    13    14    1
    27    13    15   ar
    28    15    16   ar
    29    15    36    1
    30    16    17   ar
    31    16    37    1
    32    17    18    1
    33    18    19    1
    34    19    20    1
    35    19    21    1
    36    19    38    1
    37    20    39    1
    38    20    40    1
    39    20    41    1
    40    21    42    1
    41    21    43    1
    42    21    44    1
    43    22    24    1
    44    22    23    1
    45    22    45    1
    46    23    24    1
    47    23    46    1
    48    23    47    1
    49    24    48    1
    50    24    49    1
@<TRIPOS>SUBSTRUCTURE
     1 ZINC000433533595        1 TEMP              0 ****  ****    0 ROOT


##########                                Name:    ZINC000012979878
##########                DOCK_Rotatable_Bonds:                   7
##########                         Heavy_Atoms:                  26
##########                    Molecular_Weight:             388.874
##########                DOCK_Rotatable_Bonds:                   7
##########                       Formal_Charge:          -0.0100003
##########                     HBond_Acceptors:                   7
##########                        HBond_Donors:                   1
##########                         Heavy_Atoms:                  26
##########                          Grid_Score:          -29.653477
##########                     Grid_vdw_energy:          -28.165401
##########                      Grid_es_energy:           -1.488075
##########           Internal_energy_repulsive:            9.141455

@<TRIPOS>MOLECULE
ZINC000012979878
 43 45 1 0 0
SMALL
USER_CHARGES


@<TRIPOS>ATOM
      1 C1        -10.0845    1.1670   54.6710 C.3     1  <0>         0.0300
      2 O2         -9.9621    1.4224   56.0717 O.3     1  <0>        -0.3100
      3 C3         -8.7770    1.9261   56.5058 C.ar    1  <0>         0.1500
      4 C4         -8.6013    2.2284   57.8487 C.ar    1  <0>        -0.2200
      5 C5         -7.3967    2.7412   58.2918 C.ar    1  <0>        -0.0600
      6 C6         -6.3639    2.9541   57.3998 C.ar    1  <0>        -0.1800
      7 C7         -6.5341    2.6532   56.0539 C.ar    1  <0>         0.1800
      8 N8         -5.4885    2.8687   55.1508 N.am    1  <0>        -0.6700
      9 C9         -5.6338    3.7622   54.1522 C.2     1  <0>         0.6000
     10 O10        -6.6751    4.3814   54.0366 O.2     1  <0>        -0.4900
     11 C11        -4.5373    3.9883   53.2051 C.2     1  <0>        -0.3000
     12 C12        -3.4516    4.7755   53.4112 C.2     1  <0>         0.1600
     13 C13        -3.2286    5.5448   54.6878 C.3     1  <0>        -0.0900
     14 N14        -2.6140    4.8084   52.4053 N.2     1  <0>        -0.4500
     15 C15        -2.9115    4.1052   51.3602 C.2     1  <0>         0.0600
     16 C16        -2.0707    4.0210   50.1124 C.3     1  <0>         0.1300
     17 O17        -1.5825    2.6870   49.9561 O.3     1  <0>        -0.3000
     18 C18        -1.7055    2.1253   48.7246 C.ar    1  <0>         0.1300
     19 C19        -0.9032    2.5598   47.6797 C.ar    1  <0>        -0.2000
     20 C20        -1.0298    1.9877   46.4287 C.ar    1  <0>        -0.0700
     21 C21        -1.9564    0.9820   46.2175 C.ar    1  <0>        -0.0700
     22 Cl22       -2.1139    0.2649   44.6444 Cl      1  <0>        -0.0700
     23 C23        -2.7571    0.5469   47.2585 C.ar    1  <0>        -0.0700
     24 C24        -2.6296    1.1126   48.5124 C.ar    1  <0>        -0.1300
     25 S25        -4.3897    3.2801   51.5983 S.3     1  <0>         0.2000
     26 C26        -7.7410    2.1330   55.6084 C.ar    1  <0>        -0.1500
     27 H27        -9.9409    2.0956   54.1185 H       1  <0>         0.0600
     28 H28        -9.3293    0.4424   54.3665 H       1  <0>         0.0600
     29 H29       -11.0767    0.7680   54.4597 H       1  <0>         0.1000
     30 H30        -9.4071    2.0630   58.5486 H       1  <0>         0.1300
     31 H31        -7.2629    2.9763   59.3373 H       1  <0>         0.1300
     32 H32        -5.4236    3.3549   57.7486 H       1  <0>         0.1300
     33 H33        -4.6585    2.3752   55.2429 H       1  <0>         0.4100
     34 H34        -2.6681    4.9280   55.3904 H       1  <0>         0.0900
     35 H35        -2.6651    6.4524   54.4714 H       1  <0>         0.0800
     36 H36        -4.1911    5.8102   55.1249 H       1  <0>         0.1000
     37 H37        -2.6766    4.2898   49.2472 H       1  <0>         0.0900
     38 H38        -1.2289    4.7087   50.1944 H       1  <0>         0.1000
     39 H39        -0.1805    3.3453   47.8440 H       1  <0>         0.1400
     40 H40        -0.4053    2.3257   45.6150 H       1  <0>         0.1400
     41 H41        -3.4796   -0.2385   47.0918 H       1  <0>         0.1400
     42 H42        -3.2549    0.7727   49.3247 H       1  <0>         0.1400
     43 H43        -7.8758    1.8979   54.5629 H       1  <0>         0.1400
@<TRIPOS>BOND
     1     1     2    1
     2     1    27    1
     3     1    28    1
     4     1    29    1
     5     2     3    1
     6     3    26   ar
     7     3     4   ar
     8     4     5   ar
     9     4    30    1
    10     5     6   ar
    11     5    31    1
    12     6     7   ar
    13     6    32    1
    14     7     8    1
    15     7    26   ar
    16     8     9   am
    17     8    33    1
    18     9    10    2
    19     9    11    1
    20    11    25    1
    21    11    12    2
    22    12    13    1
    23    12    14    1
    24    13    34    1
    25    13    35    1
    26    13    36    1
    27    14    15    2
    28    15    16    1
    29    15    25    1
    30    16    17    1
    31    16    37    1
    32    16    38    1
    33    17    18    1
    34    18    24   ar
    35    18    19   ar
    36    19    20   ar
    37    19    39    1
    38    20    21   ar
    39    20    40    1
    40    21    22    1
    41    21    23   ar
    42    23    24   ar
    43    23    41    1
    44    24    42    1
    45    26    43    1
@<TRIPOS>SUBSTRUCTURE
     1 <0>         1 TEMP              0 ****  ****    0 ROOT


##########                                Name:    ZINC000057429281
##########                DOCK_Rotatable_Bonds:                  10
##########                         Heavy_Atoms:                  23
##########                    Molecular_Weight:             331.295
##########                DOCK_Rotatable_Bonds:                  10
##########                       Formal_Charge:          -0.0100002
##########                     HBond_Acceptors:                   9
##########                        HBond_Donors:                   5
##########                         Heavy_Atoms:                  23
##########                          Grid_Score:          -29.600510
##########                     Grid_vdw_energy:          -28.684505
##########                      Grid_es_energy:           -0.916004
##########           Internal_energy_repulsive:           11.297004

@<TRIPOS>MOLECULE
ZINC000057429281
 39 39 1 0 0
SMALL
USER_CHARGES


@<TRIPOS>ATOM
      1 C1         -1.7696   -1.4709   48.1245 C.3     1  ZINC000057429281   -0.1500
      2 C2         -1.4474    0.0093   48.3396 C.3     1  ZINC000057429281   -0.0400
      3 H3         -0.8236    0.1202   49.2265 H       1  ZINC000057429281    0.0900
      4 C4         -2.7481    0.7920   48.5297 C.3     1  ZINC000057429281   -0.1300
      5 C5         -2.4343    2.1650   49.0660 C.2     1  ZINC000057429281    0.5200
      6 O6         -1.8596    2.9723   48.3669 O.2     1  ZINC000057429281   -0.5300
      7 N7         -2.7925    2.4958   50.3225 N.am    1  ZINC000057429281   -0.7000
      8 C8         -2.4860    3.8299   50.8444 C.3     1  ZINC000057429281    0.1100
      9 C9         -3.6708    4.7367   50.6324 C.2     1  ZINC000057429281    0.5200
     10 N10        -4.8521    4.4488   51.2136 N.am    1  ZINC000057429281   -0.8500
     11 O11        -3.5612    5.7254   49.9387 O.2     1  ZINC000057429281   -0.5100
     12 C12        -2.1829    3.7355   52.3177 C.2     1  ZINC000057429281    0.5300
     13 N13        -2.4474    4.7792   53.1283 N.am    1  ZINC000057429281   -0.8400
     14 O14        -1.7009    2.7203   52.7738 O.2     1  ZINC000057429281   -0.5100
     15 C15        -0.7111    0.5428   47.1378 C.ar    1  ZINC000057429281   -0.0500
     16 C16        -1.3331    0.5736   45.9037 C.ar    1  ZINC000057429281   -0.1200
     17 C17        -0.6578    1.0630   44.8013 C.ar    1  ZINC000057429281   -0.0700
     18 C18         0.6394    1.5220   44.9331 C.ar    1  ZINC000057429281   -0.1900
     19 C19         1.3759    2.0553   43.7312 C.3     1  ZINC000057429281    0.5100
     20 F20         2.0551    1.0088   43.0983 F       1  ZINC000057429281   -0.1800
     21 F21         0.4613    2.6249   42.8389 F       1  ZINC000057429281   -0.1800
     22 F22         2.2948    3.0273   44.1410 F       1  ZINC000057429281   -0.1800
     23 C23         1.2609    1.4925   46.1674 C.ar    1  ZINC000057429281   -0.0700
     24 C24         0.5843    1.0067   47.2706 C.ar    1  ZINC000057429281   -0.1100
     25 H25        -0.8429   -2.0285   47.9891 H       1  ZINC000057429281    0.0600
     26 H26        -2.3021   -1.8568   48.9938 H       1  ZINC000057429281    0.0800
     27 H27        -2.3933   -1.5818   47.2375 H       1  ZINC000057429281    0.0500
     28 H28        -3.2600    0.8843   47.5718 H       1  ZINC000057429281    0.1000
     29 H29        -3.3899    0.2644   49.2352 H       1  ZINC000057429281    0.1000
     30 H30        -3.2533    1.8504   50.8813 H       1  ZINC000057429281    0.4200
     31 H31        -1.6202    4.2348   50.3206 H       1  ZINC000057429281    0.1300
     32 H32        -5.6149    5.0324   51.0772 H       1  ZINC000057429281    0.4000
     33 H33        -4.9398    3.6579   51.7682 H       1  ZINC000057429281    0.4100
     34 H34        -2.2523    4.7185   54.0765 H       1  ZINC000057429281    0.4000
     35 H35        -2.8329    5.5911   52.7634 H       1  ZINC000057429281    0.4100
     36 H36        -2.3467    0.2150   45.8007 H       1  ZINC000057429281    0.1400
     37 H37        -1.1435    1.0865   43.8370 H       1  ZINC000057429281    0.1400
     38 H38         2.2744    1.8515   46.2706 H       1  ZINC000057429281    0.1400
     39 H39         1.0699    0.9836   48.2350 H       1  ZINC000057429281    0.1400
@<TRIPOS>BOND
     1     1     2    1
     2     1    25    1
     3     1    26    1
     4     1    27    1
     5     2     3    1
     6     2     4    1
     7     2    15    1
     8     4     5    1
     9     4    28    1
    10     4    29    1
    11     5     6    2
    12     5     7   am
    13     7     8    1
    14     7    30    1
    15     8     9    1
    16     8    12    1
    17     8    31    1
    18     9    10   am
    19     9    11    2
    20    10    32    1
    21    10    33    1
    22    12    13   am
    23    12    14    2
    24    13    34    1
    25    13    35    1
    26    15    24   ar
    27    15    16   ar
    28    16    17   ar
    29    16    36    1
    30    17    18   ar
    31    17    37    1
    32    18    19    1
    33    18    23   ar
    34    19    20    1
    35    19    21    1
    36    19    22    1
    37    23    24   ar
    38    23    38    1
    39    24    39    1
@<TRIPOS>SUBSTRUCTURE
     1 ZINC000057429281        1 TEMP              0 ****  ****    0 ROOT


##########                                Name:    ZINC000893400114
##########                DOCK_Rotatable_Bonds:                   6
##########                         Heavy_Atoms:                  27
##########                    Molecular_Weight:             381.472
##########                DOCK_Rotatable_Bonds:                   6
##########                       Formal_Charge:           0.0300001
##########                     HBond_Acceptors:                   8
##########                        HBond_Donors:                   1
##########                         Heavy_Atoms:                  27
##########                          Grid_Score:          -29.594488
##########                     Grid_vdw_energy:          -28.320324
##########                      Grid_es_energy:           -1.274165
##########           Internal_energy_repulsive:           88.028870

@<TRIPOS>MOLECULE
ZINC000893400114
 58 61 1 0 0
SMALL
USER_CHARGES


@<TRIPOS>ATOM
      1 O1         -2.5038    2.2616   49.9985 O.2     1  ZINC000893400114   -0.5600
      2 C2         -2.0238    3.3301   49.6725 C.2     1  ZINC000893400114    0.7100
      3 N3         -2.1576    4.4026   50.4777 N.am    1  ZINC000893400114   -0.7300
      4 C4         -2.8863    4.2824   51.7429 C.3     1  ZINC000893400114    0.1400
      5 H5         -3.6982    3.5614   51.6474 H       1  ZINC000893400114    0.1200
      6 C6         -3.4344    5.6592   52.1847 C.3     1  ZINC000893400114   -0.1400
      7 C7         -2.3104    6.1607   53.1184 C.3     1  ZINC000893400114    0.1000
      8 N8         -1.6457    4.9506   53.6160 N.am    1  ZINC000893400114   -0.6200
      9 C9         -0.7669    4.9125   54.7876 C.3     1  ZINC000893400114    0.1600
     10 C10        -0.9417    6.1985   55.6012 C.3     1  ZINC000893400114   -0.1700
     11 C11        -0.0793    6.1157   56.8634 C.3     1  ZINC000893400114    0.0700
     12 O12        -0.4517    4.9609   57.6182 O.3     1  ZINC000893400114   -0.3800
     13 C13        -0.2648    3.7254   56.9249 C.3     1  ZINC000893400114    0.0700
     14 C14        -1.1347    3.7121   55.6652 C.3     1  ZINC000893400114   -0.1700
     15 C15        -1.9477    3.8781   52.8582 C.2     1  ZINC000893400114    0.5100
     16 O16        -1.5275    2.7557   53.0442 O.2     1  ZINC000893400114   -0.4900
     17 N17        -1.3534    3.4407   48.5085 N.am    1  ZINC000893400114   -0.6300
     18 C18        -0.7589    4.7219   48.0956 C.3     1  ZINC000893400114    0.0800
     19 C19         0.7035    4.4739   47.7087 C.3     1  ZINC000893400114    0.0500
     20 O20         0.7644    3.4095   46.7563 O.3     1  ZINC000893400114   -0.3800
     21 C21         0.2897    2.1545   47.2499 C.3     1  ZINC000893400114    0.0600
     22 C22        -1.1892    2.2825   47.6160 C.3     1  ZINC000893400114    0.1400
     23 H23        -1.7791    2.4356   46.7123 H       1  ZINC000893400114    0.0800
     24 C24        -1.6559    1.0104   48.3265 C.3     1  ZINC000893400114   -0.1200
     25 C25        -1.2818   -0.2109   47.4842 C.3     1  ZINC000893400114    0.0700
     26 H26        -1.2837    0.0546   46.4271 H       1  ZINC000893400114    0.0800
     27 C27        -2.2900   -1.3519   47.7394 C.3     1  ZINC000893400114   -0.1500
     28 C28        -1.3733   -2.6055   47.7494 C.3     1  ZINC000893400114   -0.1600
     29 C29        -0.0844   -2.0224   48.3816 C.3     1  ZINC000893400114    0.0500
     30 O30         0.0156   -0.6841   47.8641 O.3     1  ZINC000893400114   -0.3800
     31 H31        -1.7712    5.2541   50.2195 H       1  ZINC000893400114    0.4000
     32 H32        -3.5560    6.3234   51.3290 H       1  ZINC000893400114    0.1000
     33 H33        -4.3729    5.5494   52.7279 H       1  ZINC000893400114    0.1000
     34 H34        -1.6045    6.7770   52.5617 H       1  ZINC000893400114    0.0700
     35 H35        -2.7338    6.7268   53.9481 H       1  ZINC000893400114    0.0800
     36 H36         0.2698    4.8228   54.4630 H       1  ZINC000893400114    0.0900
     37 H37        -0.6293    7.0538   55.0020 H       1  ZINC000893400114    0.0800
     38 H38        -1.9886    6.3123   55.8822 H       1  ZINC000893400114    0.0900
     39 H39         0.9711    6.0427   56.5817 H       1  ZINC000893400114    0.0500
     40 H40        -0.2325    7.0099   57.4676 H       1  ZINC000893400114    0.1000
     41 H41         0.7832    3.6211   56.6441 H       1  ZINC000893400114    0.0500
     42 H42        -0.5517    2.8977   57.5734 H       1  ZINC000893400114    0.1000
     43 H43        -2.1856    3.7758   55.9476 H       1  ZINC000893400114    0.0900
     44 H44        -0.9604    2.7894   55.1119 H       1  ZINC000893400114    0.0700
     45 H45        -1.3030    5.1198   47.2390 H       1  ZINC000893400114    0.0800
     46 H46        -0.8048    5.4312   48.9219 H       1  ZINC000893400114    0.0800
     47 H47         1.1226    5.3794   47.2699 H       1  ZINC000893400114    0.1100
     48 H48         1.2737    4.2010   48.5966 H       1  ZINC000893400114    0.0500
     49 H49         0.4110    1.3915   46.4812 H       1  ZINC000893400114    0.1300
     50 H50         0.8584    1.8732   48.1362 H       1  ZINC000893400114    0.0500
     51 H51        -1.1736    0.9409   49.3015 H       1  ZINC000893400114    0.0800
     52 H52        -2.7375    1.0436   48.4579 H       1  ZINC000893400114    0.1100
     53 H53        -2.7840   -1.2248   48.7027 H       1  ZINC000893400114    0.0800
     54 H54        -3.0204   -1.4119   46.9325 H       1  ZINC000893400114    0.0800
     55 H55        -1.7940   -3.3948   48.3724 H       1  ZINC000893400114    0.0800
     56 H56        -1.1868   -2.9640   46.7370 H       1  ZINC000893400114    0.0800
     57 H57        -0.1712   -2.0032   49.4680 H       1  ZINC000893400114    0.0600
     58 H58         0.7835   -2.6093   48.0809 H       1  ZINC000893400114    0.0800
@<TRIPOS>BOND
     1     1     2    2
     2     2     3   am
     3     2    17   am
     4     3     4    1
     5     3    31    1
     6     4     5    1
     7     4    15    1
     8     4     6    1
     9     6     7    1
    10     6    32    1
    11     6    33    1
    12     7     8    1
    13     7    34    1
    14     7    35    1
    15     8     9    1
    16     8    15   am
    17     9    14    1
    18     9    10    1
    19     9    36    1
    20    10    11    1
    21    10    37    1
    22    10    38    1
    23    11    12    1
    24    11    39    1
    25    11    40    1
    26    12    13    1
    27    13    14    1
    28    13    41    1
    29    13    42    1
    30    14    43    1
    31    14    44    1
    32    15    16    2
    33    17    22    1
    34    17    18    1
    35    18    19    1
    36    18    45    1
    37    18    46    1
    38    19    20    1
    39    19    47    1
    40    19    48    1
    41    20    21    1
    42    21    22    1
    43    21    49    1
    44    21    50    1
    45    22    23    1
    46    22    24    1
    47    24    25    1
    48    24    51    1
    49    24    52    1
    50    25    26    1
    51    25    30    1
    52    25    27    1
    53    27    28    1
    54    27    53    1
    55    27    54    1
    56    28    29    1
    57    28    55    1
    58    28    56    1
    59    29    30    1
    60    29    57    1
    61    29    58    1
@<TRIPOS>SUBSTRUCTURE
     1 ZINC000893400114        1 TEMP              0 ****  ****    0 ROOT


##########                                Name:    ZINC000426567005
##########                DOCK_Rotatable_Bonds:                   9
##########                         Heavy_Atoms:                  31
##########                    Molecular_Weight:             417.467
##########                DOCK_Rotatable_Bonds:                   9
##########                       Formal_Charge:        -2.23517e-07
##########                     HBond_Acceptors:                   8
##########                        HBond_Donors:                   4
##########                         Heavy_Atoms:                  31
##########                          Grid_Score:          -29.589216
##########                     Grid_vdw_energy:          -27.794243
##########                      Grid_es_energy:           -1.794973
##########           Internal_energy_repulsive:           10.958172

@<TRIPOS>MOLECULE
ZINC000426567005
 54 57 1 0 0
SMALL
USER_CHARGES


@<TRIPOS>ATOM
      1 O1         -4.8633    5.0532   52.3524 O.2     1  ZINC000426567005   -0.4900
      2 C2         -5.0025    3.8477   52.3226 C.2     1  ZINC000426567005    0.5200
      3 N3         -4.2697    3.1056   51.4689 N.am    1  ZINC000426567005   -0.6000
      4 C4         -3.3525    3.7254   50.6130 C.2     1  ZINC000426567005    0.3000
      5 N5         -3.3775    4.9825   50.2354 N.2     1  ZINC000426567005   -0.3100
      6 N6         -2.2893    5.2037   49.3817 N.pl3   1  ZINC000426567005   -0.4600
      7 C7         -1.6114    4.0429   49.2585 C.2     1  ZINC000426567005    0.1100
      8 C8         -0.3695    3.8242   48.4333 C.3     1  ZINC000426567005   -0.0300
      9 C9          0.7657    3.2361   49.3076 C.3     1  ZINC000426567005   -0.1200
     10 C10         1.6708    2.5337   48.2652 C.3     1  ZINC000426567005   -0.1300
     11 C11         0.6794    1.9244   47.2526 C.3     1  ZINC000426567005   -0.1300
     12 C12        -0.6179    2.7448   47.3594 C.3     1  ZINC000426567005   -0.1200
     13 C13        -2.2403    3.1129   50.0121 C.2     1  ZINC000426567005   -0.2600
     14 C14        -5.9808    3.1866   53.2356 C.2     1  ZINC000426567005    0.5200
     15 O15        -6.5593    2.1807   52.8795 O.2     1  ZINC000426567005   -0.4900
     16 N16        -6.2220    3.7067   54.4553 N.am    1  ZINC000426567005   -0.6400
     17 C17        -7.1349    3.0898   55.3073 C.ar    1  ZINC000426567005    0.1700
     18 C18        -6.6900    2.1733   56.2556 C.ar    1  ZINC000426567005   -0.1300
     19 C19        -7.5897    1.5619   57.0992 C.ar    1  ZINC000426567005   -0.0300
     20 C20        -8.9513    1.8627   57.0029 C.ar    1  ZINC000426567005   -0.1500
     21 C21        -9.9186    1.2094   57.9060 C.2     1  ZINC000426567005    0.5600
     22 O22       -10.5374    1.8722   58.7160 O.2     1  ZINC000426567005   -0.5100
     23 N23       -10.1159   -0.1218   57.8329 N.am    1  ZINC000426567005   -0.6700
     24 C24       -11.0325   -0.7409   58.6887 C.ar    1  ZINC000426567005    0.1400
     25 C25       -12.3895   -0.7106   58.3944 C.ar    1  ZINC000426567005   -0.1500
     26 C26       -13.2921   -1.3234   59.2413 C.ar    1  ZINC000426567005   -0.1000
     27 C27       -12.8459   -1.9665   60.3813 C.ar    1  ZINC000426567005   -0.1300
     28 C28       -11.4955   -1.9982   60.6775 C.ar    1  ZINC000426567005   -0.1000
     29 C29       -10.5872   -1.3923   59.8317 C.ar    1  ZINC000426567005   -0.1200
     30 C30        -9.3948    2.7838   56.0499 C.ar    1  ZINC000426567005   -0.0600
     31 C31        -8.4894    3.3954   55.2124 C.ar    1  ZINC000426567005   -0.1400
     32 H32        -4.3779    2.1419   51.4479 H       1  ZINC000426567005    0.4300
     33 H33        -2.0624    6.0442   48.9538 H       1  ZINC000426567005    0.4400
     34 H34        -0.0516    4.7579   47.9693 H       1  ZINC000426567005    0.1100
     35 H35         1.3099    4.0298   49.8194 H       1  ZINC000426567005    0.0800
     36 H36         0.3688    2.5153   50.0224 H       1  ZINC000426567005    0.0700
     37 H37         2.3205    3.2582   47.7743 H       1  ZINC000426567005    0.0700
     38 H38         2.2617    1.7500   48.7395 H       1  ZINC000426567005    0.0700
     39 H39         1.0847    1.9966   46.2434 H       1  ZINC000426567005    0.0700
     40 H40         0.4834    0.8818   47.5030 H       1  ZINC000426567005    0.0700
     41 H41        -1.4434    2.1005   47.6617 H       1  ZINC000426567005    0.0600
     42 H42        -0.8422    3.2153   46.4021 H       1  ZINC000426567005    0.0700
     43 H43        -1.9443    2.0807   50.1260 H       1  ZINC000426567005    0.1700
     44 H44        -5.7598    4.5106   54.7399 H       1  ZINC000426567005    0.4300
     45 H45        -5.6379    1.9413   56.3295 H       1  ZINC000426567005    0.1500
     46 H46        -7.2441    0.8502   57.8342 H       1  ZINC000426567005    0.1400
     47 H47        -9.6221   -0.6506   57.1867 H       1  ZINC000426567005    0.4100
     48 H48       -12.7386   -0.2081   57.5044 H       1  ZINC000426567005    0.1300
     49 H49       -14.3475   -1.2998   59.0133 H       1  ZINC000426567005    0.1300
     50 H50       -13.5538   -2.4450   61.0421 H       1  ZINC000426567005    0.1200
     51 H51       -11.1504   -2.5008   61.5689 H       1  ZINC000426567005    0.1300
     52 H52        -9.5326   -1.4176   60.0633 H       1  ZINC000426567005    0.1300
     53 H53       -10.4462    3.0181   55.9727 H       1  ZINC000426567005    0.1300
     54 H54        -8.8314    4.1073   54.4758 H       1  ZINC000426567005    0.1400
@<TRIPOS>BOND
     1     1     2    2
     2     2     3   am
     3     2    14    1
     4     3     4    1
     5     3    32    1
     6     4    13    1
     7     4     5    2
     8     5     6    1
     9     6     7    1
    10     6    33    1
    11     7     8    1
    12     7    13    2
    13     8    12    1
    14     8     9    1
    15     8    34    1
    16     9    10    1
    17     9    35    1
    18     9    36    1
    19    10    11    1
    20    10    37    1
    21    10    38    1
    22    11    12    1
    23    11    39    1
    24    11    40    1
    25    12    41    1
    26    12    42    1
    27    13    43    1
    28    14    15    2
    29    14    16   am
    30    16    17    1
    31    16    44    1
    32    17    31   ar
    33    17    18   ar
    34    18    19   ar
    35    18    45    1
    36    19    20   ar
    37    19    46    1
    38    20    21    1
    39    20    30   ar
    40    21    22    2
    41    21    23   am
    42    23    24    1
    43    23    47    1
    44    24    29   ar
    45    24    25   ar
    46    25    26   ar
    47    25    48    1
    48    26    27   ar
    49    26    49    1
    50    27    28   ar
    51    27    50    1
    52    28    29   ar
    53    28    51    1
    54    29    52    1
    55    30    31   ar
    56    30    53    1
    57    31    54    1
@<TRIPOS>SUBSTRUCTURE
     1 ZINC000426567005        1 TEMP              0 ****  ****    0 ROOT


##########                                Name:    ZINC000549381790
##########                DOCK_Rotatable_Bonds:                   7
##########                         Heavy_Atoms:                  23
##########                    Molecular_Weight:             337.846
##########                DOCK_Rotatable_Bonds:                   7
##########                       Formal_Charge:           0.0300006
##########                     HBond_Acceptors:                   5
##########                        HBond_Donors:                   0
##########                         Heavy_Atoms:                  23
##########                          Grid_Score:          -29.574467
##########                     Grid_vdw_energy:          -28.094391
##########                      Grid_es_energy:           -1.480075
##########           Internal_energy_repulsive:           88.381088

@<TRIPOS>MOLECULE
ZINC000549381790
 47 49 1 0 0
SMALL
USER_CHARGES


@<TRIPOS>ATOM
      1 C1         -2.2108    3.7512   54.3267 C.3     1  ZINC000549381790   -0.1400
      2 C2         -3.4043    4.4839   53.7106 C.3     1  ZINC000549381790    0.1500
      3 H3         -4.3316    4.0257   54.0546 H       1  ZINC000549381790    0.0700
      4 C4         -3.3737    5.9574   54.1284 C.3     1  ZINC000549381790   -0.1300
      5 C5         -4.4868    6.7135   53.3994 C.3     1  ZINC000549381790   -0.1200
      6 C6         -4.2545    6.6349   51.8888 C.3     1  ZINC000549381790   -0.1400
      7 C7         -4.2951    5.1691   51.4456 C.3     1  ZINC000549381790    0.1000
      8 N8         -3.3290    4.4032   52.2456 N.am    1  ZINC000549381790   -0.6100
      9 C9         -2.3890    3.6456   51.6465 C.2     1  ZINC000549381790    0.5200
     10 O10        -1.5973    3.0183   52.3179 O.2     1  ZINC000549381790   -0.5000
     11 C11        -2.3215    3.5781   50.1425 C.3     1  ZINC000549381790    0.0400
     12 O12        -1.5255    2.4576   49.7513 O.3     1  ZINC000549381790   -0.2800
     13 C13        -1.2119    2.3536   48.4322 C.ar    1  ZINC000549381790    0.1100
     14 C14        -0.3092    3.2388   47.8623 C.ar    1  ZINC000549381790   -0.1700
     15 C15         0.0101    3.1333   46.5221 C.ar    1  ZINC000549381790   -0.1600
     16 C16        -0.5723    2.1428   45.7463 C.ar    1  ZINC000549381790    0.1100
     17 O17        -0.2579    2.0391   44.4271 O.3     1  ZINC000549381790   -0.3000
     18 C18         0.7884    1.1302   44.0791 C.3     1  ZINC000549381790    0.0900
     19 C19         1.3548    1.5054   42.7082 C.3     1  ZINC000549381790   -0.1600
     20 C20         0.9068    2.8353   42.0987 C.3     1  ZINC000549381790   -0.1700
     21 C21         2.3281    2.6842   42.6445 C.3     1  ZINC000549381790   -0.1700
     22 C22        -1.4760    1.2565   46.3163 C.ar    1  ZINC000549381790   -0.0300
     23 Cl23       -2.2051    0.0156   45.3455 Cl      1  ZINC000549381790   -0.0400
     24 C24        -1.7907    1.3586   47.6581 C.ar    1  ZINC000549381790   -0.1000
     25 H25        -1.2858    4.1445   53.9049 H       1  ZINC000549381790    0.0600
     26 H26        -2.2104    3.9011   55.4063 H       1  ZINC000549381790    0.0500
     27 H27        -2.2860    2.6860   54.1078 H       1  ZINC000549381790    0.0800
     28 H28        -3.5269    6.0335   55.2050 H       1  ZINC000549381790    0.0800
     29 H29        -2.4082    6.3899   53.8664 H       1  ZINC000549381790    0.0700
     30 H30        -5.4501    6.2649   53.6426 H       1  ZINC000549381790    0.0700
     31 H31        -4.4830    7.7572   53.7136 H       1  ZINC000549381790    0.0700
     32 H32        -5.0346    7.1932   51.3712 H       1  ZINC000549381790    0.0800
     33 H33        -3.2807    7.0609   51.6479 H       1  ZINC000549381790    0.0700
     34 H34        -5.2961    4.7674   51.6027 H       1  ZINC000549381790    0.0800
     35 H35        -4.0325    5.0991   50.3900 H       1  ZINC000549381790    0.0800
     36 H36        -3.3278    3.4676   49.7383 H       1  ZINC000549381790    0.0900
     37 H37        -1.8738    4.4941   49.7573 H       1  ZINC000549381790    0.0900
     38 H38         0.1442    4.0110   48.4661 H       1  ZINC000549381790    0.1400
     39 H39         0.7131    3.8229   46.0787 H       1  ZINC000549381790    0.1400
     40 H40         1.5801    1.1839   44.8263 H       1  ZINC000549381790    0.0700
     41 H41         0.3912    0.1157   44.0427 H       1  ZINC000549381790    0.0700
     42 H42         1.5282    0.6722   42.0271 H       1  ZINC000549381790    0.1200
     43 H43         0.7852    2.8772   41.0163 H       1  ZINC000549381790    0.1000
     44 H44         0.2084    3.4428   42.6743 H       1  ZINC000549381790    0.1000
     45 H45         2.5649    3.1924   43.5793 H       1  ZINC000549381790    0.1000
     46 H46         3.1415    2.6268   41.9213 H       1  ZINC000549381790    0.1000
     47 H47        -2.4937    0.6694   48.1020 H       1  ZINC000549381790    0.1500
@<TRIPOS>BOND
     1     1     2    1
     2     1    25    1
     3     1    26    1
     4     1    27    1
     5     2     3    1
     6     2     8    1
     7     2     4    1
     8     4     5    1
     9     4    28    1
    10     4    29    1
    11     5     6    1
    12     5    30    1
    13     5    31    1
    14     6     7    1
    15     6    32    1
    16     6    33    1
    17     7     8    1
    18     7    34    1
    19     7    35    1
    20     8     9   am
    21     9    10    2
    22     9    11    1
    23    11    12    1
    24    11    36    1
    25    11    37    1
    26    12    13    1
    27    13    24   ar
    28    13    14   ar
    29    14    15   ar
    30    14    38    1
    31    15    16   ar
    32    15    39    1
    33    16    17    1
    34    16    22   ar
    35    17    18    1
    36    18    19    1
    37    18    40    1
    38    18    41    1
    39    19    21    1
    40    19    20    1
    41    19    42    1
    42    20    21    1
    43    20    43    1
    44    20    44    1
    45    21    45    1
    46    21    46    1
    47    22    23    1
    48    22    24   ar
    49    24    47    1
@<TRIPOS>SUBSTRUCTURE
     1 ZINC000549381790        1 TEMP              0 ****  ****    0 ROOT


##########                                Name:    ZINC000507831344
##########                DOCK_Rotatable_Bonds:                   6
##########                         Heavy_Atoms:                  31
##########                    Molecular_Weight:              422.53
##########                DOCK_Rotatable_Bonds:                   6
##########                       Formal_Charge:          -0.0200002
##########                     HBond_Acceptors:                   8
##########                        HBond_Donors:                   2
##########                         Heavy_Atoms:                  31
##########                          Grid_Score:          -29.553392
##########                     Grid_vdw_energy:          -27.583359
##########                      Grid_es_energy:           -1.970034
##########           Internal_energy_repulsive:           21.621084

@<TRIPOS>MOLECULE
ZINC000507831344
 61 64 1 0 0
SMALL
USER_CHARGES


@<TRIPOS>ATOM
      1 C1         -8.4411    1.5312   61.0432 C.3     1  ZINC000507831344   -0.1000
      2 C2         -8.8939    1.1795   59.6495 C.ar    1  ZINC000507831344   -0.0800
      3 C3         -8.1379    1.5514   58.5533 C.ar    1  ZINC000507831344   -0.0800
      4 C4         -8.5951    1.2045   57.2828 C.ar    1  ZINC000507831344    0.0900
      5 N5         -7.8608    1.5603   56.1429 N.am    1  ZINC000507831344   -0.6700
      6 C6         -8.0297    2.7752   55.5846 C.2     1  ZINC000507831344    0.5100
      7 O7         -8.8171    3.5609   56.0684 O.2     1  ZINC000507831344   -0.5100
      8 C8         -7.2403    3.1578   54.3591 C.3     1  ZINC000507831344   -0.1400
      9 C9         -6.4963    4.4689   54.6205 C.3     1  ZINC000507831344   -0.0500
     10 C10        -5.0254    4.2729   54.3574 C.2     1  ZINC000507831344   -0.2200
     11 C11        -4.5405    4.3403   53.0895 C.2     1  ZINC000507831344    0.2100
     12 C12        -5.4669    4.6116   51.9323 C.3     1  ZINC000507831344   -0.1400
     13 N13        -3.2095    4.1603   52.8779 N.pl3   1  ZINC000507831344   -0.3000
     14 N14        -2.4338    4.1714   51.7124 N.am    1  ZINC000507831344   -0.5100
     15 C15        -1.1515    3.9372   52.0512 C.2     1  ZINC000507831344    0.5500
     16 O16        -0.2081    3.8787   51.2793 O.2     1  ZINC000507831344   -0.5400
     17 C17        -1.0856    3.7730   53.4339 C.2     1  ZINC000507831344   -0.3500
     18 C18        -2.3759    3.9144   53.9398 C.2     1  ZINC000507831344    0.3500
     19 N19        -2.8626    3.8502   55.1847 N.2     1  ZINC000507831344   -0.4800
     20 C20        -4.1456    4.0255   55.4170 C.2     1  ZINC000507831344    0.2500
     21 C21        -4.6709    3.9493   56.8275 C.3     1  ZINC000507831344   -0.1200
     22 C22        -9.7844    0.5028   57.1604 C.ar    1  ZINC000507831344    0.0800
     23 N23       -10.4809    0.1639   58.2287 N.ar    1  ZINC000507831344   -0.4900
     24 C24       -10.0748    0.4718   59.4501 C.ar    1  ZINC000507831344    0.2800
     25 N25       -10.8433    0.0923   60.5472 N.3     1  ZINC000507831344   -0.4800
     26 C26       -12.2149    0.6040   60.4311 C.3     1  ZINC000507831344    0.0600
     27 C27       -12.9868    0.2939   61.7156 C.3     1  ZINC000507831344   -0.1200
     28 C28       -13.0045   -1.2204   61.9417 C.3     1  ZINC000507831344   -0.1200
     29 C29       -11.5641   -1.7351   62.0106 C.3     1  ZINC000507831344   -0.1100
     30 C30       -10.8333   -1.3662   60.7176 C.3     1  ZINC000507831344    0.0900
     31 H31       -11.3351   -1.8342   59.8706 H       1  ZINC000507831344    0.0600
     32 C32        -9.3873   -1.8609   60.7903 C.3     1  ZINC000507831344   -0.1400
     33 H33        -7.8856    0.6943   61.4667 H       1  ZINC000507831344    0.0700
     34 H34        -7.7993    2.4114   61.0055 H       1  ZINC000507831344    0.0600
     35 H35        -9.3109    1.7420   61.6655 H       1  ZINC000507831344    0.0800
     36 H36        -7.2150    2.0982   58.6783 H       1  ZINC000507831344    0.1500
     37 H37        -7.2311    0.9320   55.7558 H       1  ZINC000507831344    0.4100
     38 H38        -6.5212    2.3714   54.1302 H       1  ZINC000507831344    0.1000
     39 H39        -7.9186    3.2868   53.5157 H       1  ZINC000507831344    0.1000
     40 H40        -6.8834    5.2444   53.9595 H       1  ZINC000507831344    0.0900
     41 H41        -6.6430    4.7694   55.6580 H       1  ZINC000507831344    0.1000
     42 H42        -5.5355    5.6866   51.7661 H       1  ZINC000507831344    0.1000
     43 H43        -5.0785    4.1293   51.0352 H       1  ZINC000507831344    0.0800
     44 H44        -6.4567    4.2150   52.1585 H       1  ZINC000507831344    0.1100
     45 H45        -2.7641    4.3218   50.8129 H       1  ZINC000507831344    0.4400
     46 H46        -0.1943    3.5720   54.0097 H       1  ZINC000507831344    0.1700
     47 H47        -3.8474    3.7430   57.5112 H       1  ZINC000507831344    0.0900
     48 H48        -5.1354    4.8986   57.0941 H       1  ZINC000507831344    0.1000
     49 H49        -5.4098    3.1510   56.8973 H       1  ZINC000507831344    0.0900
     50 H50       -10.1451    0.2307   56.1796 H       1  ZINC000507831344    0.1600
     51 H51       -12.1882    1.6823   60.2748 H       1  ZINC000507831344    0.0700
     52 H52       -12.7102    0.1268   59.5855 H       1  ZINC000507831344    0.0500
     53 H53       -12.4999    0.7822   62.5598 H       1  ZINC000507831344    0.0700
     54 H54       -14.0093    0.6600   61.6231 H       1  ZINC000507831344    0.0700
     55 H55       -13.5160   -1.4429   62.8781 H       1  ZINC000507831344    0.0700
     56 H56       -13.5257   -1.7059   61.1167 H       1  ZINC000507831344    0.0600
     57 H57       -11.0547   -1.2788   62.8594 H       1  ZINC000507831344    0.0700
     58 H58       -11.5700   -2.8187   62.1288 H       1  ZINC000507831344    0.0700
     59 H59        -9.3774   -2.9501   60.8282 H       1  ZINC000507831344    0.0600
     60 H60        -8.8430   -1.5230   59.9084 H       1  ZINC000507831344    0.0500
     61 H61        -8.9114   -1.4617   61.6860 H       1  ZINC000507831344    0.0600
@<TRIPOS>BOND
     1     1     2    1
     2     1    33    1
     3     1    34    1
     4     1    35    1
     5     2    24   ar
     6     2     3   ar
     7     3     4   ar
     8     3    36    1
     9     4     5    1
    10     4    22   ar
    11     5     6   am
    12     5    37    1
    13     6     7    2
    14     6     8    1
    15     8     9    1
    16     8    38    1
    17     8    39    1
    18     9    10    1
    19     9    40    1
    20     9    41    1
    21    10    20    1
    22    10    11    2
    23    11    12    1
    24    11    13    1
    25    12    42    1
    26    12    43    1
    27    12    44    1
    28    13    18    1
    29    13    14    1
    30    14    15   am
    31    14    45    1
    32    15    16    2
    33    15    17    1
    34    17    18    2
    35    17    46    1
    36    18    19    1
    37    19    20    2
    38    20    21    1
    39    21    47    1
    40    21    48    1
    41    21    49    1
    42    22    23   ar
    43    22    50    1
    44    23    24   ar
    45    24    25    1
    46    25    30    1
    47    25    26    1
    48    26    27    1
    49    26    51    1
    50    26    52    1
    51    27    28    1
    52    27    53    1
    53    27    54    1
    54    28    29    1
    55    28    55    1
    56    28    56    1
    57    29    30    1
    58    29    57    1
    59    29    58    1
    60    30    31    1
    61    30    32    1
    62    32    59    1
    63    32    60    1
    64    32    61    1
@<TRIPOS>SUBSTRUCTURE
     1 ZINC000507831344        1 TEMP              0 ****  ****    0 ROOT


##########                                Name:    ZINC001023148918
##########                DOCK_Rotatable_Bonds:                   6
##########                         Heavy_Atoms:                  25
##########                    Molecular_Weight:             348.402
##########                DOCK_Rotatable_Bonds:                   6
##########                       Formal_Charge:           0.0199999
##########                     HBond_Acceptors:                   8
##########                        HBond_Donors:                   2
##########                         Heavy_Atoms:                  25
##########                          Grid_Score:          -29.550146
##########                     Grid_vdw_energy:          -28.557661
##########                      Grid_es_energy:           -0.992486
##########           Internal_energy_repulsive:           12.690004

@<TRIPOS>MOLECULE
ZINC001023148918
 49 52 1 0 0
SMALL
USER_CHARGES


@<TRIPOS>ATOM
      1 C1        -13.8512   -1.4089   62.4322 C.3     1  ZINC001023148918   -0.0700
      2 C2        -13.4556   -1.8301   61.0404 C.2     1  ZINC001023148918    0.0200
      3 N3        -14.0427   -2.7494   60.3175 N.2     1  ZINC001023148918   -0.2700
      4 N4        -13.4670   -2.8728   59.1760 N.pl3   1  ZINC001023148918   -0.2500
      5 C5        -13.8688   -3.8103   58.1246 C.3     1  ZINC001023148918    0.0800
      6 C6        -12.4226   -1.9962   59.0921 C.2     1  ZINC001023148918   -0.0400
      7 C7        -11.5083   -1.8181   57.9528 C.2     1  ZINC001023148918    0.6000
      8 O8        -10.4159   -1.3111   58.1232 O.2     1  ZINC001023148918   -0.5300
      9 N9        -11.8813   -2.2168   56.7206 N.am    1  ZINC001023148918   -0.7000
     10 C10       -10.9711   -2.0395   55.5865 C.3     1  ZINC001023148918    0.1500
     11 H11       -10.0080   -2.5100   55.7839 H       1  ZINC001023148918    0.1200
     12 C12       -10.7962   -0.5388   55.2443 C.3     1  ZINC001023148918    0.1000
     13 N13       -10.4145   -0.5184   53.8204 N.am    1  ZINC001023148918   -0.6200
     14 C14        -9.7304    0.4661   53.2046 C.2     1  ZINC001023148918    0.5400
     15 O15        -9.4690    0.3761   52.0237 O.2     1  ZINC001023148918   -0.5200
     16 C16        -9.2903    1.6788   53.9835 C.3     1  ZINC001023148918   -0.1400
     17 H17        -8.9488    1.3939   54.9787 H       1  ZINC001023148918    0.1100
     18 C18       -10.4357    2.7193   54.0731 C.3     1  ZINC001023148918   -0.1400
     19 C19        -9.8338    3.9584   53.3448 C.3     1  ZINC001023148918    0.0600
     20 H20       -10.5612    4.6725   52.9586 H       1  ZINC001023148918    0.1300
     21 C21        -8.7807    4.5452   54.3321 C.3     1  ZINC001023148918   -0.1500
     22 C22        -7.6284    3.5111   54.2590 C.3     1  ZINC001023148918   -0.1500
     23 C23        -8.1752    2.4520   53.2176 C.3     1  ZINC001023148918    0.0900
     24 H24        -7.4153    1.8428   52.7280 H       1  ZINC001023148918    0.1400
     25 O25        -8.9819    3.3141   52.3414 O.3     1  ZINC001023148918   -0.3600
     26 C26       -10.9030   -1.7503   53.1838 C.3     1  ZINC001023148918    0.0700
     27 C27       -11.5997   -2.5870   54.2780 C.3     1  ZINC001023148918    0.0900
     28 H28       -12.6762   -2.4163   54.2672 H       1  ZINC001023148918    0.0800
     29 O29       -11.3085   -3.9764   54.1142 O.3     1  ZINC001023148918   -0.5500
     30 C30       -12.4009   -1.3044   60.2906 C.2     1  ZINC001023148918   -0.1800
     31 H31       -14.5793   -0.5999   62.3739 H       1  ZINC001023148918    0.0800
     32 H32       -14.2915   -2.2568   62.9571 H       1  ZINC001023148918    0.0700
     33 H33       -12.9690   -1.0655   62.9724 H       1  ZINC001023148918    0.0800
     34 H34       -14.6478   -3.3567   57.5116 H       1  ZINC001023148918    0.0900
     35 H35       -13.0073   -4.0472   57.5003 H       1  ZINC001023148918    0.1100
     36 H36       -14.2505   -4.7244   58.5792 H       1  ZINC001023148918    0.0900
     37 H37       -12.7525   -2.6211   56.5847 H       1  ZINC001023148918    0.4100
     38 H38       -11.7341   -0.0038   55.3933 H       1  ZINC001023148918    0.0800
     39 H39       -10.0070   -0.0999   55.8549 H       1  ZINC001023148918    0.0900
     40 H40       -11.3246    2.3607   53.5544 H       1  ZINC001023148918    0.0800
     41 H41       -10.6627    2.9552   55.1129 H       1  ZINC001023148918    0.0900
     42 H42        -8.4417    5.5255   53.9971 H       1  ZINC001023148918    0.0800
     43 H43        -9.1868    4.6002   55.3421 H       1  ZINC001023148918    0.0800
     44 H44        -6.7151    3.9761   53.8878 H       1  ZINC001023148918    0.0800
     45 H45        -7.4604    3.0508   55.2327 H       1  ZINC001023148918    0.0800
     46 H46       -11.6147   -1.5033   52.3959 H       1  ZINC001023148918    0.0800
     47 H47       -10.0653   -2.3097   52.7674 H       1  ZINC001023148918    0.0900
     48 H48       -10.3701   -4.1942   54.1986 H       1  ZINC001023148918    0.3900
     49 H49       -11.7110   -0.5278   60.5860 H       1  ZINC001023148918    0.1600
@<TRIPOS>BOND
     1     1     2    1
     2     1    31    1
     3     1    32    1
     4     1    33    1
     5     2    30    1
     6     2     3    2
     7     3     4    1
     8     4     5    1
     9     4     6    1
    10     5    34    1
    11     5    35    1
    12     5    36    1
    13     6     7    1
    14     6    30    2
    15     7     8    2
    16     7     9   am
    17     9    10    1
    18     9    37    1
    19    10    11    1
    20    10    27    1
    21    10    12    1
    22    12    13    1
    23    12    38    1
    24    12    39    1
    25    13    14   am
    26    13    26    1
    27    14    15    2
    28    14    16    1
    29    16    17    1
    30    16    23    1
    31    16    18    1
    32    18    19    1
    33    18    40    1
    34    18    41    1
    35    19    20    1
    36    19    25    1
    37    19    21    1
    38    21    22    1
    39    21    42    1
    40    21    43    1
    41    22    23    1
    42    22    44    1
    43    22    45    1
    44    23    24    1
    45    23    25    1
    46    26    27    1
    47    26    46    1
    48    26    47    1
    49    27    28    1
    50    27    29    1
    51    29    48    1
    52    30    49    1
@<TRIPOS>SUBSTRUCTURE
     1 ZINC001023148918        1 TEMP              0 ****  ****    0 ROOT


##########                                Name:    ZINC000455156110
##########                DOCK_Rotatable_Bonds:                   4
##########                         Heavy_Atoms:                  27
##########                    Molecular_Weight:             370.424
##########                DOCK_Rotatable_Bonds:                   4
##########                       Formal_Charge:           0.0100002
##########                     HBond_Acceptors:                   6
##########                        HBond_Donors:                   1
##########                         Heavy_Atoms:                  27
##########                          Grid_Score:          -29.548691
##########                     Grid_vdw_energy:          -30.372766
##########                      Grid_es_energy:            0.824076
##########           Internal_energy_repulsive:           28.905008

@<TRIPOS>MOLECULE
ZINC000455156110
 50 53 1 0 0
SMALL
USER_CHARGES


@<TRIPOS>ATOM
      1 C1         -4.1385    5.9850   56.7443 C.3     1  ZINC000455156110    0.0300
      2 O2         -4.6776    6.0805   55.4243 O.3     1  ZINC000455156110   -0.3100
      3 C3         -3.9790    5.4747   54.4265 C.ar    1  ZINC000455156110    0.0900
      4 C4         -2.8034    4.7997   54.7149 C.ar    1  ZINC000455156110   -0.1600
      5 C5         -2.0931    4.1839   53.7021 C.ar    1  ZINC000455156110   -0.0800
      6 C6         -0.8147    3.4508   54.0169 C.3     1  ZINC000455156110   -0.1100
      7 C7         -2.5568    4.2402   52.3951 C.ar    1  ZINC000455156110    0.1500
      8 N8         -1.8366    3.6148   51.3685 N.am    1  ZINC000455156110   -0.6700
      9 C9         -2.4503    2.7314   50.5564 C.2     1  ZINC000455156110    0.7200
     10 O10        -3.6288    2.4771   50.7144 O.2     1  ZINC000455156110   -0.5500
     11 N11        -1.7576    2.1299   49.5690 N.am    1  ZINC000455156110   -0.5600
     12 C12        -2.3149    1.1597   48.6210 C.3     1  ZINC000455156110    0.1000
     13 C13        -1.1429    0.7766   47.7093 C.3     1  ZINC000455156110   -0.0200
     14 C14        -0.8549   -0.7190   47.8173 C.3     1  ZINC000455156110   -0.1400
     15 C15        -2.0433   -1.5023   47.2509 C.3     1  ZINC000455156110    0.0600
     16 O16        -2.2812   -1.0932   45.9024 O.3     1  ZINC000455156110   -0.3800
     17 C17        -2.6183    0.2883   45.7601 C.3     1  ZINC000455156110    0.0600
     18 C18        -1.4547    1.1492   46.2616 C.3     1  ZINC000455156110   -0.1400
     19 C19         0.0278    1.5783   48.2201 C.ar    1  ZINC000455156110   -0.1300
     20 C20         1.3409    1.6455   47.7959 C.ar    1  ZINC000455156110   -0.0700
     21 C21         2.2391    2.4742   48.4426 C.ar    1  ZINC000455156110   -0.1400
     22 C22         1.8207    3.2374   49.5168 C.ar    1  ZINC000455156110   -0.0900
     23 C23         0.5116    3.1734   49.9447 C.ar    1  ZINC000455156110   -0.1300
     24 C24        -0.4028    2.3439   49.2939 C.ar    1  ZINC000455156110    0.1600
     25 C25        -3.7349    4.9157   52.1052 C.ar    1  ZINC000455156110   -0.1200
     26 C26        -4.4473    5.5278   53.1194 C.ar    1  ZINC000455156110    0.0900
     27 F27        -5.5938    6.1850   52.8386 F       1  ZINC000455156110   -0.1300
     28 H28        -4.7913    6.5093   57.4422 H       1  ZINC000455156110    0.1000
     29 H29        -4.0664    4.9362   57.0322 H       1  ZINC000455156110    0.0600
     30 H30        -3.1467    6.4365   56.7652 H       1  ZINC000455156110    0.0600
     31 H31        -2.4421    4.7552   55.7318 H       1  ZINC000455156110    0.1400
     32 H32        -1.0399    2.4088   54.2446 H       1  ZINC000455156110    0.0800
     33 H33        -0.1470    3.4985   53.1565 H       1  ZINC000455156110    0.0600
     34 H34        -0.3322    3.9145   54.8773 H       1  ZINC000455156110    0.0800
     35 H35        -0.8965    3.8177   51.2424 H       1  ZINC000455156110    0.4100
     36 H36        -2.6850    0.2820   49.1510 H       1  ZINC000455156110    0.0800
     37 H37        -3.1147    1.6162   48.0380 H       1  ZINC000455156110    0.0900
     38 H38         0.0437   -0.9589   47.2488 H       1  ZINC000455156110    0.0800
     39 H39        -0.7074   -0.9869   48.8635 H       1  ZINC000455156110    0.0800
     40 H40        -1.8197   -2.5688   47.2732 H       1  ZINC000455156110    0.1000
     41 H41        -2.9299   -1.3035   47.8530 H       1  ZINC000455156110    0.0500
     42 H42        -2.8085    0.5100   44.7100 H       1  ZINC000455156110    0.1000
     43 H43        -3.5112    0.5070   46.3459 H       1  ZINC000455156110    0.0500
     44 H44        -1.7312    2.2022   46.2080 H       1  ZINC000455156110    0.0800
     45 H45        -0.5759    0.9705   45.6421 H       1  ZINC000455156110    0.0800
     46 H46         1.6669    1.0486   46.9570 H       1  ZINC000455156110    0.1300
     47 H47         3.2651    2.5249   48.1095 H       1  ZINC000455156110    0.1300
     48 H48         2.5214    3.8852   50.0225 H       1  ZINC000455156110    0.1300
     49 H49         0.1910    3.7716   50.7848 H       1  ZINC000455156110    0.1400
     50 H50        -4.0962    4.9599   51.0884 H       1  ZINC000455156110    0.1700
@<TRIPOS>BOND
     1     1     2    1
     2     1    28    1
     3     1    29    1
     4     1    30    1
     5     2     3    1
     6     3    26   ar
     7     3     4   ar
     8     4     5   ar
     9     4    31    1
    10     5     6    1
    11     5     7   ar
    12     6    32    1
    13     6    33    1
    14     6    34    1
    15     7     8    1
    16     7    25   ar
    17     8     9   am
    18     8    35    1
    19     9    10    2
    20     9    11   am
    21    11    24    1
    22    11    12    1
    23    12    13    1
    24    12    36    1
    25    12    37    1
    26    13    18    1
    27    13    14    1
    28    13    19    1
    29    14    15    1
    30    14    38    1
    31    14    39    1
    32    15    16    1
    33    15    40    1
    34    15    41    1
    35    16    17    1
    36    17    18    1
    37    17    42    1
    38    17    43    1
    39    18    44    1
    40    18    45    1
    41    19    24   ar
    42    19    20   ar
    43    20    21   ar
    44    20    46    1
    45    21    22   ar
    46    21    47    1
    47    22    23   ar
    48    22    48    1
    49    23    24   ar
    50    23    49    1
    51    25    26   ar
    52    25    50    1
    53    26    27    1
@<TRIPOS>SUBSTRUCTURE
     1 ZINC000455156110        1 TEMP              0 ****  ****    0 ROOT


##########                                Name:    ZINC000124554441
##########                DOCK_Rotatable_Bonds:                   9
##########                         Heavy_Atoms:                  26
##########                    Molecular_Weight:             375.898
##########                DOCK_Rotatable_Bonds:                   9
##########                       Formal_Charge:         -0.00999991
##########                     HBond_Acceptors:                   6
##########                        HBond_Donors:                   1
##########                         Heavy_Atoms:                  26
##########                          Grid_Score:          -29.534927
##########                     Grid_vdw_energy:          -30.464849
##########                      Grid_es_energy:            0.929922
##########           Internal_energy_repulsive:           15.016479

@<TRIPOS>MOLECULE
ZINC000124554441
 52 53 1 0 0
SMALL
USER_CHARGES


@<TRIPOS>ATOM
      1 C1        -11.2713   -0.3828   52.2100 C.3     1  ZINC000124554441   -0.1500
      2 C2        -10.1793   -1.3000   52.7642 C.3     1  ZINC000124554441   -0.1300
      3 C3        -10.8231   -2.4324   53.5667 C.3     1  ZINC000124554441   -0.1200
      4 C4        -11.5717   -1.8463   54.7655 C.3     1  ZINC000124554441   -0.1200
      5 C5        -12.0066   -2.9784   55.6983 C.3     1  ZINC000124554441   -0.1300
      6 C6        -13.0447   -2.4511   56.6908 C.3     1  ZINC000124554441    0.1200
      7 N7        -12.3893   -1.5710   57.6614 N.am    1  ZINC000124554441   -0.7300
      8 C8        -11.8212   -2.0916   58.7672 C.2     1  ZINC000124554441    0.5200
      9 O9        -11.8539   -3.2886   58.9594 O.2     1  ZINC000124554441   -0.5300
     10 C10       -11.1454   -1.1864   59.7647 C.3     1  ZINC000124554441   -0.1200
     11 H11       -11.7463   -0.2882   59.9063 H       1  ZINC000124554441    0.1000
     12 C12       -10.9979   -1.9183   61.1006 C.3     1  ZINC000124554441   -0.1000
     13 C13       -10.3414   -0.9887   62.1238 C.3     1  ZINC000124554441   -0.1400
     14 C14        -8.9450   -0.5974   61.6301 C.3     1  ZINC000124554441    0.0900
     15 N15        -9.0632   -0.0241   60.2825 N.am    1  ZINC000124554441   -0.6000
     16 C16        -8.5439    1.1880   60.0038 C.2     1  ZINC000124554441    0.5600
     17 O17        -7.9711    1.8178   60.8713 O.2     1  ZINC000124554441   -0.5200
     18 C18        -8.6711    1.7518   58.6422 C.ar    1  ZINC000124554441   -0.0900
     19 C19        -9.8727    2.3376   58.2389 C.ar    1  ZINC000124554441   -0.0900
     20 C20        -9.9924    2.8629   56.9715 C.ar    1  ZINC000124554441   -0.0600
     21 C21        -8.9118    2.8096   56.0883 C.ar    1  ZINC000124554441    0.0100
     22 C22        -9.0360    3.3557   54.7704 C.1     1  ZINC000124554441    0.2400
     23 N23        -9.1347    3.7891   53.7249 N.1     1  ZINC000124554441   -0.3800
     24 C24        -7.7083    2.2231   56.4917 C.ar    1  ZINC000124554441    0.0000
     25 Cl25       -6.3641    2.1567   55.3952 Cl      1  ZINC000124554441   -0.0400
     26 C26        -7.5879    1.7031   57.7629 C.ar    1  ZINC000124554441   -0.0600
     27 C27        -9.7583   -0.7968   59.2439 C.3     1  ZINC000124554441    0.1200
     28 H28       -11.9334   -0.9568   51.5616 H       1  ZINC000124554441    0.0500
     29 H29       -11.8459    0.0378   53.0352 H       1  ZINC000124554441    0.0500
     30 H30       -10.8127    0.4239   51.6383 H       1  ZINC000124554441    0.0500
     31 H31        -9.6047   -1.7207   51.9389 H       1  ZINC000124554441    0.0600
     32 H32        -9.5172   -0.7261   53.4125 H       1  ZINC000124554441    0.0600
     33 H33       -11.5228   -2.9756   52.9316 H       1  ZINC000124554441    0.0600
     34 H34       -10.0487   -3.1136   53.9195 H       1  ZINC000124554441    0.0600
     35 H35       -10.9156   -1.1631   55.3048 H       1  ZINC000124554441    0.0700
     36 H36       -12.4510   -1.3056   54.4158 H       1  ZINC000124554441    0.0700
     37 H37       -12.4434   -3.7859   55.1105 H       1  ZINC000124554441    0.0700
     38 H38       -11.1404   -3.3533   56.2433 H       1  ZINC000124554441    0.0700
     39 H39       -13.8106   -1.8923   56.1529 H       1  ZINC000124554441    0.0700
     40 H40       -13.5060   -3.2888   57.2136 H       1  ZINC000124554441    0.0700
     41 H41       -12.3641   -0.6134   57.5083 H       1  ZINC000124554441    0.4000
     42 H42       -11.9820   -2.2180   61.4610 H       1  ZINC000124554441    0.0800
     43 H43       -10.3768   -2.8034   60.9632 H       1  ZINC000124554441    0.0800
     44 H44       -10.9496   -0.0920   62.2434 H       1  ZINC000124554441    0.0700
     45 H45       -10.2580   -1.5026   63.0814 H       1  ZINC000124554441    0.0900
     46 H46        -8.5126    0.1415   62.3049 H       1  ZINC000124554441    0.1000
     47 H47        -8.3083   -1.4815   61.5965 H       1  ZINC000124554441    0.0800
     48 H48       -10.7089    2.3784   58.9212 H       1  ZINC000124554441    0.1500
     49 H49       -10.9221    3.3158   56.6603 H       1  ZINC000124554441    0.1500
     50 H50        -6.6588    1.2500   58.0753 H       1  ZINC000124554441    0.1500
     51 H51        -9.1884   -1.6973   59.0154 H       1  ZINC000124554441    0.0800
     52 H52        -9.8622   -0.1895   58.3446 H       1  ZINC000124554441    0.1000
@<TRIPOS>BOND
     1     1     2    1
     2     1    28    1
     3     1    29    1
     4     1    30    1
     5     2     3    1
     6     2    31    1
     7     2    32    1
     8     3     4    1
     9     3    33    1
    10     3    34    1
    11     4     5    1
    12     4    35    1
    13     4    36    1
    14     5     6    1
    15     5    37    1
    16     5    38    1
    17     6     7    1
    18     6    39    1
    19     6    40    1
    20     7     8   am
    21     7    41    1
    22     8     9    2
    23     8    10    1
    24    10    11    1
    25    10    27    1
    26    10    12    1
    27    12    13    1
    28    12    42    1
    29    12    43    1
    30    13    14    1
    31    13    44    1
    32    13    45    1
    33    14    15    1
    34    14    46    1
    35    14    47    1
    36    15    16   am
    37    15    27    1
    38    16    17    2
    39    16    18    1
    40    18    26   ar
    41    18    19   ar
    42    19    20   ar
    43    19    48    1
    44    20    21   ar
    45    20    49    1
    46    21    22    1
    47    21    24   ar
    48    22    23    3
    49    24    25    1
    50    24    26   ar
    51    26    50    1
    52    27    51    1
    53    27    52    1
@<TRIPOS>SUBSTRUCTURE
     1 ZINC000124554441        1 TEMP              0 ****  ****    0 ROOT


##########                                Name:    ZINC000558213406
##########                DOCK_Rotatable_Bonds:                   8
##########                         Heavy_Atoms:                  30
##########                    Molecular_Weight:               408.5
##########                DOCK_Rotatable_Bonds:                   8
##########                       Formal_Charge:          -0.0299987
##########                     HBond_Acceptors:                   7
##########                        HBond_Donors:                   2
##########                         Heavy_Atoms:                  30
##########                          Grid_Score:          -29.510603
##########                     Grid_vdw_energy:          -28.100044
##########                      Grid_es_energy:           -1.410559
##########           Internal_energy_repulsive:            8.911904

@<TRIPOS>MOLECULE
ZINC000558213406
 58 61 1 0 0
SMALL
USER_CHARGES


@<TRIPOS>ATOM
      1 O1         -1.3638    2.7397   52.6504 O.2     1  ZINC000558213406   -0.5700
      2 C2         -1.1122    3.9267   52.7289 C.2     1  ZINC000558213406    0.7100
      3 N3         -0.5986    4.5783   51.6668 N.am    1  ZINC000558213406   -0.6800
      4 C4         -0.3491    3.8866   50.4739 C.ar    1  ZINC000558213406    0.1700
      5 C5          0.9467    3.5087   50.1482 C.ar    1  ZINC000558213406   -0.1300
      6 C6          1.1920    2.8267   48.9730 C.ar    1  ZINC000558213406   -0.1100
      7 C7          0.1439    2.5193   48.1172 C.ar    1  ZINC000558213406    0.0600
      8 O8          0.3860    1.8481   46.9600 O.3     1  ZINC000558213406   -0.2500
      9 C9         -0.4908    0.8783   46.5895 C.ar    1  ZINC000558213406    0.0700
     10 C10        -0.7416   -0.2038   47.4275 C.ar    1  ZINC000558213406   -0.1500
     11 C11        -1.6438   -1.1675   47.0062 C.ar    1  ZINC000558213406   -0.1300
     12 C12        -2.2602   -1.0237   45.7774 C.ar    1  ZINC000558213406    0.0600
     13 N13        -1.9999    0.0143   45.0065 N.ar    1  ZINC000558213406   -0.4500
     14 C14        -1.1533    0.9558   45.3725 C.ar    1  ZINC000558213406    0.0800
     15 C15        -1.1511    2.8962   48.4425 C.ar    1  ZINC000558213406   -0.1000
     16 C16        -1.3982    3.5737   49.6200 C.ar    1  ZINC000558213406   -0.1100
     17 N17        -1.3522    4.5920   53.8761 N.am    1  ZINC000558213406   -0.7300
     18 C18        -1.9105    3.8836   55.0307 C.3     1  ZINC000558213406    0.1500
     19 H19        -1.5575    2.8526   55.0564 H       1  ZINC000558213406    0.1100
     20 C20        -1.5552    4.6187   56.3500 C.3     1  ZINC000558213406   -0.1400
     21 C21        -2.7178    4.1781   57.2743 C.3     1  ZINC000558213406    0.1000
     22 N22        -3.9013    4.1327   56.3963 N.am    1  ZINC000558213406   -0.6200
     23 C23        -5.1823    4.2520   56.7980 C.2     1  ZINC000558213406    0.5400
     24 O24        -5.4370    4.4123   57.9728 O.2     1  ZINC000558213406   -0.5300
     25 C25        -6.2982    4.1863   55.7872 C.3     1  ZINC000558213406   -0.1000
     26 C26        -6.7515    2.7345   55.6217 C.3     1  ZINC000558213406   -0.1100
     27 C27        -7.8843    2.6678   54.5955 C.3     1  ZINC000558213406   -0.1200
     28 C28        -9.0612    3.5176   55.0790 C.3     1  ZINC000558213406   -0.1200
     29 C29        -8.6077    4.9694   55.2445 C.3     1  ZINC000558213406   -0.1200
     30 C30        -7.4749    5.0361   56.2707 C.3     1  ZINC000558213406   -0.1100
     31 C31        -3.4528    3.9323   55.0074 C.3     1  ZINC000558213406    0.1000
     32 H32        -0.4017    5.5261   51.7281 H       1  ZINC000558213406    0.4100
     33 H33         1.7626    3.7486   50.8139 H       1  ZINC000558213406    0.1300
     34 H34         2.1999    2.5327   48.7196 H       1  ZINC000558213406    0.1400
     35 H35        -0.2451   -0.2906   48.3825 H       1  ZINC000558213406    0.1400
     36 H36        -1.8626   -2.0211   47.6306 H       1  ZINC000558213406    0.1400
     37 H37        -2.9643   -1.7716   45.4439 H       1  ZINC000558213406    0.1600
     38 H38        -0.9658    1.7913   44.7144 H       1  ZINC000558213406    0.1700
     39 H39        -1.9666    2.6566   47.7760 H       1  ZINC000558213406    0.1400
     40 H40        -2.4064    3.8667   49.8732 H       1  ZINC000558213406    0.1500
     41 H41        -1.1553    5.5398   53.9374 H       1  ZINC000558213406    0.4000
     42 H42        -0.5958    4.2792   56.7403 H       1  ZINC000558213406    0.0900
     43 H43        -1.5571    5.6993   56.2079 H       1  ZINC000558213406    0.0800
     44 H44        -2.5173    3.1916   57.6920 H       1  ZINC000558213406    0.0700
     45 H45        -2.8650    4.9061   58.0719 H       1  ZINC000558213406    0.0800
     46 H46        -5.9438    4.5678   54.8295 H       1  ZINC000558213406    0.0900
     47 H47        -5.9130    2.1290   55.2772 H       1  ZINC000558213406    0.0600
     48 H48        -7.1057    2.3531   56.5793 H       1  ZINC000558213406    0.0700
     49 H49        -7.5300    3.0492   53.6378 H       1  ZINC000558213406    0.0600
     50 H50        -8.2073    1.6335   54.4776 H       1  ZINC000558213406    0.0700
     51 H51        -9.8682    3.4700   54.3479 H       1  ZINC000558213406    0.0600
     52 H52        -9.4154    3.1361   56.0366 H       1  ZINC000558213406    0.0600
     53 H53        -8.2535    5.3509   54.2869 H       1  ZINC000558213406    0.0600
     54 H54        -9.4462    5.5748   55.5890 H       1  ZINC000558213406    0.0700
     55 H55        -7.8292    4.6548   57.2284 H       1  ZINC000558213406    0.0800
     56 H56        -7.1519    6.0705   56.3886 H       1  ZINC000558213406    0.0600
     57 H57        -3.7859    4.7640   54.3867 H       1  ZINC000558213406    0.0800
     58 H58        -3.8524    2.9948   54.6204 H       1  ZINC000558213406    0.0800
@<TRIPOS>BOND
     1     1     2    2
     2     2     3   am
     3     2    17   am
     4     3     4    1
     5     3    32    1
     6     4    16   ar
     7     4     5   ar
     8     5     6   ar
     9     5    33    1
    10     6     7   ar
    11     6    34    1
    12     7     8    1
    13     7    15   ar
    14     8     9    1
    15     9    14   ar
    16     9    10   ar
    17    10    11   ar
    18    10    35    1
    19    11    12   ar
    20    11    36    1
    21    12    13   ar
    22    12    37    1
    23    13    14   ar
    24    14    38    1
    25    15    16   ar
    26    15    39    1
    27    16    40    1
    28    17    18    1
    29    17    41    1
    30    18    19    1
    31    18    31    1
    32    18    20    1
    33    20    21    1
    34    20    42    1
    35    20    43    1
    36    21    22    1
    37    21    44    1
    38    21    45    1
    39    22    23   am
    40    22    31    1
    41    23    24    2
    42    23    25    1
    43    25    30    1
    44    25    26    1
    45    25    46    1
    46    26    27    1
    47    26    47    1
    48    26    48    1
    49    27    28    1
    50    27    49    1
    51    27    50    1
    52    28    29    1
    53    28    51    1
    54    28    52    1
    55    29    30    1
    56    29    53    1
    57    29    54    1
    58    30    55    1
    59    30    56    1
    60    31    57    1
    61    31    58    1
@<TRIPOS>SUBSTRUCTURE
     1 ZINC000558213406        1 TEMP              0 ****  ****    0 ROOT


##########                                Name:    ZINC000156038173
##########                DOCK_Rotatable_Bonds:                  10
##########                         Heavy_Atoms:                  27
##########                    Molecular_Weight:             396.357
##########                DOCK_Rotatable_Bonds:                  10
##########                       Formal_Charge:         -0.00999981
##########                     HBond_Acceptors:                  10
##########                        HBond_Donors:                   1
##########                         Heavy_Atoms:                  27
##########                          Grid_Score:          -29.494959
##########                     Grid_vdw_energy:          -28.219667
##########                      Grid_es_energy:           -1.275292
##########           Internal_energy_repulsive:           43.909176

@<TRIPOS>MOLECULE
ZINC000156038173
 48 48 1 0 0
SMALL
USER_CHARGES


@<TRIPOS>ATOM
      1 C1         -0.0774    4.6882   50.3442 C.3     1  ZINC000156038173    0.0700
      2 N2         -1.0305    3.7174   49.8009 N.am    1  ZINC000156038173   -0.6300
      3 C3         -2.4691    3.9861   49.8690 C.3     1  ZINC000156038173    0.1500
      4 C4         -3.0657    3.2650   51.0794 C.3     1  ZINC000156038173   -0.1400
      5 C5         -2.5668    3.9120   52.3457 C.2     1  ZINC000156038173    0.4700
      6 O6         -2.5601    5.1159   52.4469 O.2     1  ZINC000156038173   -0.5000
      7 O7         -2.1299    3.1507   53.3613 O.3     1  ZINC000156038173   -0.3500
      8 C8         -1.7010    3.8402   54.5649 C.3     1  ZINC000156038173    0.1200
      9 C9         -2.8681    4.6511   55.1315 C.3     1  ZINC000156038173   -0.1800
     10 C10        -1.2406    2.8151   55.6033 C.3     1  ZINC000156038173   -0.1400
     11 C11        -0.5422    4.7809   54.2283 C.3     1  ZINC000156038173   -0.1800
     12 C12        -0.5839    2.5769   49.2384 C.2     1  ZINC000156038173    0.7100
     13 O13         0.6099    2.3531   49.1832 O.2     1  ZINC000156038173   -0.5700
     14 N14        -1.4608    1.6845   48.7372 N.am    1  ZINC000156038173   -0.7400
     15 C15        -0.9756    0.4440   48.1273 C.3     1  ZINC000156038173    0.1700
     16 H16        -0.3636   -0.0996   48.8471 H       1  ZINC000156038173    0.1500
     17 C17        -0.1483    0.7722   46.9111 C.ar    1  ZINC000156038173   -0.1300
     18 C18        -0.6542    1.6128   45.9376 C.ar    1  ZINC000156038173   -0.0700
     19 C19         0.1035    1.9148   44.8212 C.ar    1  ZINC000156038173   -0.1000
     20 C20         1.3684    1.3768   44.6764 C.ar    1  ZINC000156038173   -0.1100
     21 C21         1.8777    0.5346   45.6496 C.ar    1  ZINC000156038173    0.0700
     22 F22         3.1140    0.0082   45.5087 F       1  ZINC000156038173   -0.1200
     23 C23         1.1202    0.2363   46.7719 C.ar    1  ZINC000156038173    0.1000
     24 F24         1.6153   -0.5855   47.7230 F       1  ZINC000156038173   -0.1200
     25 C25        -2.1677   -0.4218   47.7147 C.3     1  ZINC000156038173    0.4500
     26 F26        -2.6373   -1.1289   48.8267 F       1  ZINC000156038173   -0.1700
     27 F27        -3.1880    0.3959   47.2171 F       1  ZINC000156038173   -0.1600
     28 F28        -1.7677   -1.3240   46.7232 F       1  ZINC000156038173   -0.1700
     29 H29         0.1148    4.4610   51.3927 H       1  ZINC000156038173    0.0600
     30 H30         0.8558    4.6341   49.7837 H       1  ZINC000156038173    0.0700
     31 H31        -0.4938    5.6921   50.2604 H       1  ZINC000156038173    0.0800
     32 H32        -2.6339    5.0591   49.9677 H       1  ZINC000156038173    0.1000
     33 H33        -2.9492    3.6269   48.9589 H       1  ZINC000156038173    0.0900
     34 H34        -4.1531    3.3307   51.0418 H       1  ZINC000156038173    0.1100
     35 H35        -2.7643    2.2176   51.0633 H       1  ZINC000156038173    0.1100
     36 H36        -3.6937    3.9810   55.3713 H       1  ZINC000156038173    0.0600
     37 H37        -2.5461    5.1687   56.0352 H       1  ZINC000156038173    0.0700
     38 H38        -3.1961    5.3814   54.3918 H       1  ZINC000156038173    0.0800
     39 H39        -0.4091    2.2374   55.1996 H       1  ZINC000156038173    0.0700
     40 H40        -0.9186    3.3327   56.5069 H       1  ZINC000156038173    0.0800
     41 H41        -2.0661    2.1449   55.8430 H       1  ZINC000156038173    0.0700
     42 H42        -0.8702    5.5111   53.4886 H       1  ZINC000156038173    0.0800
     43 H43        -0.2202    5.2985   55.1320 H       1  ZINC000156038173    0.0700
     44 H44         0.2893    4.2031   53.8246 H       1  ZINC000156038173    0.0600
     45 H45        -2.4131    1.8636   48.7801 H       1  ZINC000156038173    0.4100
     46 H46        -1.6424    2.0339   46.0489 H       1  ZINC000156038173    0.1400
     47 H47        -0.2935    2.5716   44.0614 H       1  ZINC000156038173    0.1500
     48 H48         1.9591    1.6132   43.8037 H       1  ZINC000156038173    0.1500
@<TRIPOS>BOND
     1     1     2    1
     2     1    29    1
     3     1    30    1
     4     1    31    1
     5     2     3    1
     6     2    12   am
     7     3     4    1
     8     3    32    1
     9     3    33    1
    10     4     5    1
    11     4    34    1
    12     4    35    1
    13     5     6    2
    14     5     7    1
    15     7     8    1
    16     8     9    1
    17     8    10    1
    18     8    11    1
    19     9    36    1
    20     9    37    1
    21     9    38    1
    22    10    39    1
    23    10    40    1
    24    10    41    1
    25    11    42    1
    26    11    43    1
    27    11    44    1
    28    12    13    2
    29    12    14   am
    30    14    15    1
    31    14    45    1
    32    15    16    1
    33    15    17    1
    34    15    25    1
    35    17    23   ar
    36    17    18   ar
    37    18    19   ar
    38    18    46    1
    39    19    20   ar
    40    19    47    1
    41    20    21   ar
    42    20    48    1
    43    21    22    1
    44    21    23   ar
    45    23    24    1
    46    25    26    1
    47    25    27    1
    48    25    28    1
@<TRIPOS>SUBSTRUCTURE
     1 ZINC000156038173        1 TEMP              0 ****  ****    0 ROOT


##########                                Name:    ZINC001162683355
##########                DOCK_Rotatable_Bonds:                   5
##########                         Heavy_Atoms:                  25
##########                    Molecular_Weight:             336.437
##########                DOCK_Rotatable_Bonds:                   5
##########                       Formal_Charge:          -0.0100002
##########                     HBond_Acceptors:                   5
##########                        HBond_Donors:                   1
##########                         Heavy_Atoms:                  25
##########                          Grid_Score:          -29.492466
##########                     Grid_vdw_energy:          -28.058441
##########                      Grid_es_energy:           -1.434026
##########           Internal_energy_repulsive:            8.995322

@<TRIPOS>MOLECULE
ZINC001162683355
 49 52 1 0 0
SMALL
USER_CHARGES


@<TRIPOS>ATOM
      1 C1          2.7268    5.2000   42.8849 C.3     1  ZINC001162683355    0.0200
      2 N2          2.2616    4.2032   43.8584 N.3     1  ZINC001162683355   -0.5400
      3 C3          1.0086    3.5764   43.4128 C.3     1  ZINC001162683355    0.0100
      4 C4          0.5924    2.5050   44.4242 C.3     1  ZINC001162683355    0.0600
      5 O5          0.4695    3.1006   45.7187 O.3     1  ZINC001162683355   -0.3800
      6 C6          1.6718    3.7199   46.1840 C.3     1  ZINC001162683355    0.0800
      7 H7          2.4589    2.9703   46.2666 H       1  ZINC001162683355    0.0700
      8 C8          1.4231    4.3527   47.5546 C.3     1  ZINC001162683355    0.1500
      9 N9          1.1695    3.2990   48.5403 N.pl3   1  ZINC001162683355   -0.7300
     10 C10         0.7519    3.6335   49.8237 C.ar    1  ZINC001162683355    0.4300
     11 C11        -0.5151    3.2472   50.2673 C.ar    1  ZINC001162683355   -0.0100
     12 C12        -0.9057    3.6018   51.5715 C.ar    1  ZINC001162683355   -0.0400
     13 C13        -0.0093    4.3258   52.3692 C.ar    1  ZINC001162683355   -0.1800
     14 C14         1.2087    4.6609   51.8533 C.ar    1  ZINC001162683355    0.1000
     15 N15         1.5552    4.3164   50.6224 N.ar    1  ZINC001162683355   -0.5400
     16 C16        -2.2539    3.0712   51.7499 C.2     1  ZINC001162683355   -0.2200
     17 C17        -2.5906    2.4603   50.5998 C.2     1  ZINC001162683355    0.0800
     18 N18        -1.5617    2.5516   49.7063 N.pl3   1  ZINC001162683355   -0.4600
     19 C19        -1.5729    1.9969   48.3503 C.3     1  ZINC001162683355    0.1500
     20 C20        -1.3916    0.5023   48.4175 C.ar    1  ZINC001162683355   -0.1100
     21 C21        -0.1251   -0.0447   48.3309 C.ar    1  ZINC001162683355   -0.1000
     22 C22         0.0416   -1.4155   48.3969 C.ar    1  ZINC001162683355   -0.1200
     23 C23        -1.0589   -2.2395   48.5402 C.ar    1  ZINC001162683355   -0.1100
     24 C24        -2.3259   -1.6926   48.6216 C.ar    1  ZINC001162683355   -0.1200
     25 C25        -2.4922   -0.3217   48.5600 C.ar    1  ZINC001162683355   -0.1000
     26 C26         2.0990    4.8035   45.1904 C.3     1  ZINC001162683355    0.0300
     27 H27         2.0020    6.0116   42.8214 H       1  ZINC001162683355    0.0300
     28 H28         3.6902    5.5975   43.2039 H       1  ZINC001162683355    0.0700
     29 H29         2.8334    4.7307   41.9068 H       1  ZINC001162683355    0.0700
     30 H30         1.1590    3.1163   42.4363 H       1  ZINC001162683355    0.0900
     31 H31         0.2278    4.3337   43.3428 H       1  ZINC001162683355    0.0500
     32 H32         1.3483    1.7203   44.4549 H       1  ZINC001162683355    0.0600
     33 H33        -0.3652    2.0767   44.1283 H       1  ZINC001162683355    0.1000
     34 H34         0.5579    5.0133   47.4982 H       1  ZINC001162683355    0.0700
     35 H35         2.2998    4.9271   47.8540 H       1  ZINC001162683355    0.0800
     36 H36         1.2931    2.3680   48.2976 H       1  ZINC001162683355    0.4000
     37 H37        -0.2778    4.6134   53.3750 H       1  ZINC001162683355    0.1300
     38 H38         1.9051    5.2184   52.4619 H       1  ZINC001162683355    0.1500
     39 H39        -2.8664    3.1568   52.6353 H       1  ZINC001162683355    0.1500
     40 H40        -3.5336    1.9687   50.4117 H       1  ZINC001162683355    0.1700
     41 H41        -0.7602    2.4359   47.7715 H       1  ZINC001162683355    0.0900
     42 H42        -2.5250    2.2263   47.8719 H       1  ZINC001162683355    0.0900
     43 H43         0.7345    0.5988   48.2150 H       1  ZINC001162683355    0.1200
     44 H44         1.0315   -1.8427   48.3337 H       1  ZINC001162683355    0.1300
     45 H45        -0.9289   -3.3105   48.5892 H       1  ZINC001162683355    0.1300
     46 H46        -3.1857   -2.3364   48.7337 H       1  ZINC001162683355    0.1300
     47 H47        -3.4821    0.1056   48.6235 H       1  ZINC001162683355    0.1200
     48 H48         1.3355    5.5804   45.1487 H       1  ZINC001162683355    0.0500
     49 H49         3.0452    5.2391   45.5114 H       1  ZINC001162683355    0.0900
@<TRIPOS>BOND
     1     1     2    1
     2     1    27    1
     3     1    28    1
     4     1    29    1
     5     2    26    1
     6     2     3    1
     7     3     4    1
     8     3    30    1
     9     3    31    1
    10     4     5    1
    11     4    32    1
    12     4    33    1
    13     5     6    1
    14     6     7    1
    15     6     8    1
    16     6    26    1
    17     8     9    1
    18     8    34    1
    19     8    35    1
    20     9    10    1
    21     9    36    1
    22    10    15   ar
    23    10    11   ar
    24    11    18    1
    25    11    12   ar
    26    12    13   ar
    27    12    16    1
    28    13    14   ar
    29    13    37    1
    30    14    15   ar
    31    14    38    1
    32    16    17    2
    33    16    39    1
    34    17    18    1
    35    17    40    1
    36    18    19    1
    37    19    20    1
    38    19    41    1
    39    19    42    1
    40    20    25   ar
    41    20    21   ar
    42    21    22   ar
    43    21    43    1
    44    22    23   ar
    45    22    44    1
    46    23    24   ar
    47    23    45    1
    48    24    25   ar
    49    24    46    1
    50    25    47    1
    51    26    48    1
    52    26    49    1
@<TRIPOS>SUBSTRUCTURE
     1 ZINC001162683355        1 TEMP              0 ****  ****    0 ROOT


##########                                Name:    ZINC000906038034
##########                DOCK_Rotatable_Bonds:                   5
##########                         Heavy_Atoms:                  23
##########                    Molecular_Weight:             387.428
##########                DOCK_Rotatable_Bonds:                   5
##########                       Formal_Charge:         -0.00999987
##########                     HBond_Acceptors:                  12
##########                        HBond_Donors:                   0
##########                         Heavy_Atoms:                  23
##########                          Grid_Score:          -29.476110
##########                     Grid_vdw_energy:          -28.204401
##########                      Grid_es_energy:           -1.271709
##########           Internal_energy_repulsive:            5.237271

@<TRIPOS>MOLECULE
ZINC000906038034
 35 36 1 0 0
SMALL
USER_CHARGES


@<TRIPOS>ATOM
      1 C1         -8.1185    1.5815   59.4796 C.3     1  ZINC000906038034    0.1000
      2 N2         -7.8461    1.8306   58.0618 N.pl3   1  ZINC000906038034   -0.3700
      3 C3         -6.7750    2.4858   57.5640 C.2     1  ZINC000906038034    0.0600
      4 C4         -6.8864    2.5071   56.2186 C.2     1  ZINC000906038034   -0.2500
      5 C5         -8.0775    1.8359   55.8730 C.2     1  ZINC000906038034    0.1200
      6 C6         -8.5914    1.6245   54.5024 C.2     1  ZINC000906038034    0.1500
      7 N7         -9.6895    0.9953   54.1957 N.2     1  ZINC000906038034   -0.4300
      8 C8         -9.9892    0.9048   52.9198 C.2     1  ZINC000906038034    0.0600
      9 C9        -11.2322    0.2024   52.4377 C.3     1  ZINC000906038034   -0.5300
     10 S10       -10.8315   -1.5164   52.0186 S.o2    1  ZINC000906038034    2.4200
     11 O11       -11.9644   -2.1067   51.3963 O.2     1  ZINC000906038034   -0.9100
     12 O12        -9.5802   -1.5384   51.3457 O.2     1  ZINC000906038034   -0.9200
     13 C13       -10.6189   -2.2623   53.6585 C.3     1  ZINC000906038034   -0.6100
     14 C14       -11.8106   -1.8944   54.5446 C.3     1  ZINC000906038034   -0.4500
     15 S15       -11.9221   -3.0659   55.9251 S.o     1  ZINC000906038034    1.3300
     16 O16       -12.1814   -4.3689   55.4208 O.2     1  ZINC000906038034   -0.7600
     17 C17       -13.3692   -2.4750   56.8457 C.3     1  ZINC000906038034    0.1200
     18 F18       -14.4959   -2.5115   56.0173 F       1  ZINC000906038034   -0.1900
     19 F19       -13.5815   -3.2965   57.9581 F       1  ZINC000906038034   -0.1700
     20 F20       -13.1461   -1.1613   57.2720 F       1  ZINC000906038034   -0.1600
     21 C21        -9.1234    1.4746   52.0760 C.2     1  ZINC000906038034   -0.2300
     22 S22        -7.8201    2.1899   53.0227 S.3     1  ZINC000906038034    0.1600
     23 N23        -8.6484    1.4253   56.9876 N.2     1  ZINC000906038034   -0.2400
     24 H24        -7.6655    0.6353   59.7758 H       1  ZINC000906038034    0.0800
     25 H25        -7.6968    2.3891   60.0780 H       1  ZINC000906038034    0.0900
     26 H26        -9.1956    1.5346   59.6399 H       1  ZINC000906038034    0.0900
     27 H27        -5.9706    2.9175   58.1412 H       1  ZINC000906038034    0.1800
     28 H28        -6.1877    2.9584   55.5296 H       1  ZINC000906038034    0.1600
     29 H29       -11.9867    0.2182   53.2242 H       1  ZINC000906038034    0.1500
     30 H30       -11.6176    0.7114   51.5543 H       1  ZINC000906038034    0.1600
     31 H31       -10.5603   -3.3462   53.5599 H       1  ZINC000906038034    0.1500
     32 H32        -9.7005   -1.8886   54.1113 H       1  ZINC000906038034    0.1500
     33 H33       -11.6759   -0.8854   54.9342 H       1  ZINC000906038034    0.1600
     34 H34       -12.7275   -1.9373   53.9566 H       1  ZINC000906038034    0.1300
     35 H35        -9.2097    1.4967   50.9996 H       1  ZINC000906038034    0.1900
@<TRIPOS>BOND
     1     1     2    1
     2     1    24    1
     3     1    25    1
     4     1    26    1
     5     2    23    1
     6     2     3    1
     7     3     4    2
     8     3    27    1
     9     4     5    1
    10     4    28    1
    11     5     6    1
    12     5    23    2
    13     6    22    1
    14     6     7    2
    15     7     8    1
    16     8     9    1
    17     8    21    2
    18     9    10    1
    19     9    29    1
    20     9    30    1
    21    10    11    2
    22    10    12    2
    23    10    13    1
    24    13    14    1
    25    13    31    1
    26    13    32    1
    27    14    15    1
    28    14    33    1
    29    14    34    1
    30    15    16    2
    31    15    17    1
    32    17    18    1
    33    17    19    1
    34    17    20    1
    35    21    22    1
    36    21    35    1
@<TRIPOS>SUBSTRUCTURE
     1 ZINC000906038034        1 TEMP              0 ****  ****    0 ROOT


##########                                Name:    ZINC000459459628
##########                DOCK_Rotatable_Bonds:                   8
##########                         Heavy_Atoms:                  27
##########                    Molecular_Weight:             377.366
##########                DOCK_Rotatable_Bonds:                   8
##########                       Formal_Charge:         -0.00999984
##########                     HBond_Acceptors:                   8
##########                        HBond_Donors:                   1
##########                         Heavy_Atoms:                  27
##########                          Grid_Score:          -29.472458
##########                     Grid_vdw_energy:          -27.324224
##########                      Grid_es_energy:           -2.148234
##########           Internal_energy_repulsive:           18.108341

@<TRIPOS>MOLECULE
ZINC000459459628
 45 46 1 0 0
SMALL
USER_CHARGES


@<TRIPOS>ATOM
      1 C1         -0.0918    4.2729   48.6233 C.3     1  ZINC000459459628   -0.1600
      2 C2         -0.4765    3.0947   47.7262 C.3     1  ZINC000459459628    0.1600
      3 H3         -0.8876    3.4705   46.7892 H       1  ZINC000459459628    0.1100
      4 C4         -1.5254    2.2352   48.4350 C.3     1  ZINC000459459628   -0.0900
      5 C5         -1.8293    1.0205   47.5965 C.ar    1  ZINC000459459628   -0.0500
      6 C6         -1.9229   -0.2237   48.1913 C.ar    1  ZINC000459459628   -0.1200
      7 C7         -2.2017   -1.3392   47.4233 C.ar    1  ZINC000459459628   -0.0900
      8 C8         -2.3871   -1.2112   46.0601 C.ar    1  ZINC000459459628   -0.1600
      9 C9         -2.2942    0.0349   45.4631 C.ar    1  ZINC000459459628    0.1000
     10 F10        -2.4753    0.1612   44.1303 F       1  ZINC000459459628   -0.1400
     11 C11        -2.0202    1.1518   46.2339 C.ar    1  ZINC000459459628   -0.1500
     12 N12         0.7118    2.2843   47.4479 N.am    1  ZINC000459459628   -0.6200
     13 C13         1.1841    1.3128   48.4376 C.3     1  ZINC000459459628    0.0700
     14 C14         1.3705    2.4326   46.2815 C.2     1  ZINC000459459628    0.7100
     15 O15         2.3576    1.7612   46.0510 O.2     1  ZINC000459459628   -0.5700
     16 N16         0.9349    3.3254   45.3705 N.am    1  ZINC000459459628   -0.6800
     17 C17         1.6201    3.4797   44.1572 C.ar    1  ZINC000459459628    0.1500
     18 C18         1.6658    2.4363   43.2511 C.ar    1  ZINC000459459628   -0.0400
     19 C19         2.3495    2.5945   42.0425 C.ar    1  ZINC000459459628   -0.0300
     20 C20         2.3997    1.5174   41.1002 C.1     1  ZINC000459459628    0.2600
     21 N21         2.4395    0.6630   40.3527 N.1     1  ZINC000459459628   -0.4100
     22 C22         2.9836    3.8059   41.7554 C.ar    1  ZINC000459459628   -0.0500
     23 C23         2.9347    4.8422   42.6634 C.ar    1  ZINC000459459628   -0.1700
     24 C24         2.2514    4.6885   43.8611 C.ar    1  ZINC000459459628    0.1100
     25 O25         2.2063    5.7128   44.7520 O.3     1  ZINC000459459628   -0.3200
     26 C26         2.0568    7.0302   44.2190 C.3     1  ZINC000459459628    0.4100
     27 F27         1.1091    7.7327   44.9709 F       1  ZINC000459459628   -0.1900
     28 F28         3.2848    7.6980   44.2751 F       1  ZINC000459459628   -0.1900
     29 H29         0.3193    3.8971   49.5602 H       1  ZINC000459459628    0.0600
     30 H30         0.6555    4.8851   48.1183 H       1  ZINC000459459628    0.0600
     31 H31        -0.9759    4.8758   48.8303 H       1  ZINC000459459628    0.0700
     32 H32        -1.1415    1.9202   49.4053 H       1  ZINC000459459628    0.0800
     33 H33        -2.4364    2.8167   48.5760 H       1  ZINC000459459628    0.0900
     34 H34        -1.7777   -0.3247   49.2568 H       1  ZINC000459459628    0.1300
     35 H35        -2.2742   -2.3108   47.8891 H       1  ZINC000459459628    0.1300
     36 H36        -2.6043   -2.0827   45.4602 H       1  ZINC000459459628    0.1300
     37 H37        -1.9478    2.1241   45.7695 H       1  ZINC000459459628    0.1300
     38 H38         0.7083    0.3491   48.2563 H       1  ZINC000459459628    0.0600
     39 H39         2.2656    1.2056   48.3540 H       1  ZINC000459459628    0.0700
     40 H40         0.9297    1.6610   49.4386 H       1  ZINC000459459628    0.0800
     41 H41         0.1474    3.8610   45.5544 H       1  ZINC000459459628    0.4100
     42 H42         1.1747    1.5013   43.4769 H       1  ZINC000459459628    0.1600
     43 H43         3.5125    3.9304   40.8221 H       1  ZINC000459459628    0.1400
     44 H44         3.4260    5.7777   42.4400 H       1  ZINC000459459628    0.1500
     45 H45         1.7244    6.9673   43.1828 H       1  ZINC000459459628    0.1900
@<TRIPOS>BOND
     1     1     2    1
     2     1    29    1
     3     1    30    1
     4     1    31    1
     5     2     3    1
     6     2     4    1
     7     2    12    1
     8     4     5    1
     9     4    32    1
    10     4    33    1
    11     5    11   ar
    12     5     6   ar
    13     6     7   ar
    14     6    34    1
    15     7     8   ar
    16     7    35    1
    17     8     9   ar
    18     8    36    1
    19     9    10    1
    20     9    11   ar
    21    11    37    1
    22    12    13    1
    23    12    14   am
    24    13    38    1
    25    13    39    1
    26    13    40    1
    27    14    15    2
    28    14    16   am
    29    16    17    1
    30    16    41    1
    31    17    24   ar
    32    17    18   ar
    33    18    19   ar
    34    18    42    1
    35    19    20    1
    36    19    22   ar
    37    20    21    3
    38    22    23   ar
    39    22    43    1
    40    23    24   ar
    41    23    44    1
    42    24    25    1
    43    25    26    1
    44    26    27    1
    45    26    28    1
    46    26    45    1
@<TRIPOS>SUBSTRUCTURE
     1 ZINC000459459628        1 TEMP              0 ****  ****    0 ROOT


##########                                Name:    ZINC001077846158
##########                DOCK_Rotatable_Bonds:                   7
##########                         Heavy_Atoms:                  24
##########                    Molecular_Weight:             350.442
##########                DOCK_Rotatable_Bonds:                   7
##########                       Formal_Charge:          -0.0600002
##########                     HBond_Acceptors:                   8
##########                        HBond_Donors:                   2
##########                         Heavy_Atoms:                  24
##########                          Grid_Score:          -29.467457
##########                     Grid_vdw_energy:          -30.005939
##########                      Grid_es_energy:            0.538482
##########           Internal_energy_repulsive:            6.883368

@<TRIPOS>MOLECULE
ZINC001077846158
 46 48 1 0 0
SMALL
USER_CHARGES


@<TRIPOS>ATOM
      1 C1          1.6459   -0.0550   47.7732 C.3     1  ZINC001077846158   -0.0700
      2 C2          0.3591   -0.8254   47.9209 C.2     1  ZINC001077846158    0.0100
      3 C3         -0.8786   -0.3502   47.7044 C.2     1  ZINC001077846158   -0.0500
      4 C4         -1.2376    1.0474   47.2698 C.3     1  ZINC001077846158    0.1300
      5 N5         -1.0627    1.9713   48.3984 N.3     1  ZINC001077846158   -0.5100
      6 C6         -0.6651    3.3216   47.9241 C.3     1  ZINC001077846158    0.0000
      7 C7         -1.0387    4.2397   49.1150 C.3     1  ZINC001077846158    0.1000
      8 H8         -0.2666    4.2077   49.8837 H       1  ZINC001077846158    0.0800
      9 O9         -1.2527    5.5812   48.6715 O.3     1  ZINC001077846158   -0.5600
     10 C10        -2.3539    3.6147   49.6342 C.3     1  ZINC001077846158    0.1400
     11 H11        -3.2129    4.1449   49.2230 H       1  ZINC001077846158    0.1100
     12 N12        -2.3896    3.6484   51.0984 N.am    1  ZINC001077846158   -0.7000
     13 C13        -3.0985    4.6028   51.7333 C.2     1  ZINC001077846158    0.6000
     14 O14        -3.7074    5.4369   51.0907 O.2     1  ZINC001077846158   -0.5300
     15 C15        -3.1359    4.6357   53.2051 C.2     1  ZINC001077846158    0.0100
     16 C16        -3.7769    5.5972   53.9070 C.2     1  ZINC001077846158   -0.2300
     17 S17        -3.5875    5.2808   55.5762 S.3     1  ZINC001077846158    0.2300
     18 C18        -2.6640    3.8840   55.2410 C.2     1  ZINC001077846158    0.0300
     19 C19        -2.0764    2.9721   56.2872 C.3     1  ZINC001077846158   -0.0200
     20 C20        -1.6258    3.8013   57.4914 C.3     1  ZINC001077846158   -0.1500
     21 C21        -3.1329    1.9588   56.7321 C.3     1  ZINC001077846158   -0.1500
     22 N22        -2.5445    3.7153   53.9713 N.2     1  ZINC001077846158   -0.4500
     23 C23        -2.3334    2.1593   49.1314 C.3     1  ZINC001077846158    0.0300
     24 O24        -1.7386   -1.3583   47.9487 O.3     1  ZINC001077846158   -0.2100
     25 C25        -1.0202   -2.4301   48.3090 C.2     1  ZINC001077846158    0.1800
     26 N26         0.2432   -2.1139   48.2877 N.2     1  ZINC001077846158   -0.4900
     27 H27         2.0143   -0.1553   46.7523 H       1  ZINC001077846158    0.0800
     28 H28         1.4666    0.9975   47.9930 H       1  ZINC001077846158    0.0700
     29 H29         2.3876   -0.4500   48.4675 H       1  ZINC001077846158    0.0700
     30 H30        -0.5886    1.3504   46.4482 H       1  ZINC001077846158    0.0600
     31 H31        -2.2762    1.0696   46.9396 H       1  ZINC001077846158    0.1100
     32 H32         0.4065    3.3609   47.7295 H       1  ZINC001077846158    0.0900
     33 H33        -1.2294    3.5980   47.0335 H       1  ZINC001077846158    0.0600
     34 H34        -0.4722    5.9944   48.2776 H       1  ZINC001077846158    0.3900
     35 H35        -1.9031    2.9840   51.6108 H       1  ZINC001077846158    0.4100
     36 H36        -4.3197    6.4289   53.4826 H       1  ZINC001077846158    0.1900
     37 H37        -1.2196    2.4438   55.8687 H       1  ZINC001077846158    0.1000
     38 H38        -0.8731    4.5232   57.1744 H       1  ZINC001077846158    0.0600
     39 H39        -2.4825    4.3297   57.9098 H       1  ZINC001077846158    0.0600
     40 H40        -1.2008    3.1417   58.2481 H       1  ZINC001077846158    0.0700
     41 H41        -3.4539    1.3682   55.8742 H       1  ZINC001077846158    0.0600
     42 H42        -2.7079    1.2994   57.4888 H       1  ZINC001077846158    0.0700
     43 H43        -3.9896    2.4872   57.1504 H       1  ZINC001077846158    0.0600
     44 H44        -3.1768    1.9854   48.4631 H       1  ZINC001077846158    0.0600
     45 H45        -2.3791    1.4735   49.9773 H       1  ZINC001077846158    0.0900
     46 H46        -1.4220   -3.3980   48.5700 H       1  ZINC001077846158    0.2500
@<TRIPOS>BOND
     1     1     2    1
     2     1    27    1
     3     1    28    1
     4     1    29    1
     5     2    26    1
     6     2     3    2
     7     3     4    1
     8     3    24    1
     9     4     5    1
    10     4    30    1
    11     4    31    1
    12     5    23    1
    13     5     6    1
    14     6     7    1
    15     6    32    1
    16     6    33    1
    17     7     8    1
    18     7     9    1
    19     7    10    1
    20     9    34    1
    21    10    11    1
    22    10    12    1
    23    10    23    1
    24    12    13   am
    25    12    35    1
    26    13    14    2
    27    13    15    1
    28    15    22    1
    29    15    16    2
    30    16    17    1
    31    16    36    1
    32    17    18    1
    33    18    19    1
    34    18    22    2
    35    19    20    1
    36    19    21    1
    37    19    37    1
    38    20    38    1
    39    20    39    1
    40    20    40    1
    41    21    41    1
    42    21    42    1
    43    21    43    1
    44    23    44    1
    45    23    45    1
    46    24    25    1
    47    25    26    2
    48    25    46    1
@<TRIPOS>SUBSTRUCTURE
     1 ZINC001077846158        1 TEMP              0 ****  ****    0 ROOT


##########                                Name:    ZINC001284642199
##########                DOCK_Rotatable_Bonds:                   8
##########                         Heavy_Atoms:                  25
##########                    Molecular_Weight:             346.516
##########                DOCK_Rotatable_Bonds:                   8
##########                       Formal_Charge:         -3.8743e-07
##########                     HBond_Acceptors:                   5
##########                        HBond_Donors:                   2
##########                         Heavy_Atoms:                  25
##########                          Grid_Score:          -29.448988
##########                     Grid_vdw_energy:          -28.942762
##########                      Grid_es_energy:           -0.506225
##########           Internal_energy_repulsive:           19.718246

@<TRIPOS>MOLECULE
ZINC001284642199
 59 60 1 0 0
SMALL
USER_CHARGES


@<TRIPOS>ATOM
      1 C1         -6.7693    1.6964   57.2329 C.3     1  ZINC001284642199   -0.1100
      2 C2         -5.5122    2.2455   56.6090 C.ar    1  ZINC001284642199   -0.1900
      3 C3         -5.4786    3.5321   56.0947 C.ar    1  ZINC001284642199    0.1500
      4 N4         -4.3567    3.9804   55.5547 N.ar    1  ZINC001284642199   -0.4900
      5 C5         -3.2814    3.2200   55.5029 C.ar    1  ZINC001284642199    0.3100
      6 C6         -2.0242    3.7692   54.8791 C.3     1  ZINC001284642199    0.1300
      7 N7         -1.8945    3.2582   53.5079 N.3     1  ZINC001284642199   -0.6800
      8 C8         -2.9656    3.7796   52.6484 C.3     1  ZINC001284642199    0.0500
      9 C9         -2.3589    4.6639   51.5571 C.3     1  ZINC001284642199    0.1600
     10 H10        -1.4500    5.1334   51.9334 H       1  ZINC001284642199    0.1000
     11 N11        -2.0364    3.8435   50.3870 N.am    1  ZINC001284642199   -0.7200
     12 C12        -0.7511    3.5628   50.0944 C.2     1  ZINC001284642199    0.5200
     13 O13         0.1385    3.9881   50.8006 O.2     1  ZINC001284642199   -0.5300
     14 C14        -0.4192    2.7203   48.8897 C.3     1  ZINC001284642199   -0.1100
     15 H15         0.5021    2.1681   49.0753 H       1  ZINC001284642199    0.0900
     16 C16        -1.5599    1.7353   48.6264 C.3     1  ZINC001284642199   -0.1000
     17 C17        -1.2230    0.8800   47.4033 C.3     1  ZINC001284642199   -0.1100
     18 C18        -1.0386    1.7848   46.1833 C.3     1  ZINC001284642199   -0.0900
     19 H19        -1.9599    2.3369   45.9979 H       1  ZINC001284642199    0.0700
     20 C20        -0.7015    0.9294   44.9604 C.3     1  ZINC001284642199   -0.1500
     21 C21         0.1022    2.7697   46.4468 C.3     1  ZINC001284642199   -0.1100
     22 C22        -0.2347    3.6251   47.6697 C.3     1  ZINC001284642199   -0.1100
     23 C23        -3.3649    5.7460   51.1596 C.3     1  ZINC001284642199   -0.0800
     24 C24        -4.7419    5.1116   50.9543 C.3     1  ZINC001284642199   -0.1400
     25 C25        -3.4477    6.7972   52.2682 C.3     1  ZINC001284642199   -0.1400
     26 C26        -2.9108    6.4113   49.8588 C.3     1  ZINC001284642199   -0.1300
     27 N27        -3.2778    1.9904   55.9773 N.ar    1  ZINC001284642199   -0.5100
     28 C28        -4.3616    1.4762   56.5362 C.ar    1  ZINC001284642199    0.1500
     29 H29        -7.3704    1.2057   56.4673 H       1  ZINC001284642199    0.0800
     30 H30        -6.5060    0.9748   58.0061 H       1  ZINC001284642199    0.0700
     31 H31        -7.3409    2.5117   57.6763 H       1  ZINC001284642199    0.0700
     32 H32        -6.3563    4.1601   56.1336 H       1  ZINC001284642199    0.1700
     33 H33        -1.1608    3.4568   55.4664 H       1  ZINC001284642199    0.1000
     34 H34        -2.0748    4.8577   54.8579 H       1  ZINC001284642199    0.0600
     35 H35        -1.8815    2.2493   53.4977 H       1  ZINC001284642199    0.3400
     36 H36        -3.6594    4.3680   53.2489 H       1  ZINC001284642199    0.0900
     37 H37        -3.4989    2.9482   52.1875 H       1  ZINC001284642199    0.0400
     38 H38        -2.7479    3.5023   49.8229 H       1  ZINC001284642199    0.3900
     39 H39        -2.4813    2.2875   48.4409 H       1  ZINC001284642199    0.0700
     40 H40        -1.6915    1.0907   49.4954 H       1  ZINC001284642199    0.0700
     41 H41        -2.0357    0.1783   47.2157 H       1  ZINC001284642199    0.0700
     42 H42        -0.3017    0.3277   47.5887 H       1  ZINC001284642199    0.0600
     43 H43        -1.5143    0.2277   44.7727 H       1  ZINC001284642199    0.0500
     44 H44        -0.5701    1.5740   44.0912 H       1  ZINC001284642199    0.0500
     45 H45         0.2197    0.3773   45.1458 H       1  ZINC001284642199    0.0500
     46 H46         1.0235    2.2176   46.6323 H       1  ZINC001284642199    0.0600
     47 H47         0.2337    3.4143   45.5777 H       1  ZINC001284642199    0.0700
     48 H48        -1.1561    4.1773   47.4843 H       1  ZINC001284642199    0.0700
     49 H49         0.5779    4.3268   47.8575 H       1  ZINC001284642199    0.0600
     50 H50        -5.0653    4.6376   51.8811 H       1  ZINC001284642199    0.0600
     51 H51        -5.4586    5.8824   50.6711 H       1  ZINC001284642199    0.0600
     52 H52        -4.6828    4.3627   50.1645 H       1  ZINC001284642199    0.0500
     53 H53        -2.4668    7.2492   52.4144 H       1  ZINC001284642199    0.0600
     54 H54        -4.1644    7.5682   51.9850 H       1  ZINC001284642199    0.0600
     55 H55        -3.7712    6.3232   53.1949 H       1  ZINC001284642199    0.0600
     56 H56        -2.8518    5.6624   49.0690 H       1  ZINC001284642199    0.0500
     57 H57        -3.6275    7.1822   49.5756 H       1  ZINC001284642199    0.0500
     58 H58        -1.9299    6.8633   50.0050 H       1  ZINC001284642199    0.0600
     59 H59        -4.3509    0.4692   56.9265 H       1  ZINC001284642199    0.1700
@<TRIPOS>BOND
     1     1     2    1
     2     1    29    1
     3     1    30    1
     4     1    31    1
     5     2    28   ar
     6     2     3   ar
     7     3     4   ar
     8     3    32    1
     9     4     5   ar
    10     5     6    1
    11     5    27   ar
    12     6     7    1
    13     6    33    1
    14     6    34    1
    15     7     8    1
    16     7    35    1
    17     8     9    1
    18     8    36    1
    19     8    37    1
    20     9    10    1
    21     9    11    1
    22     9    23    1
    23    11    12   am
    24    11    38    1
    25    12    13    2
    26    12    14    1
    27    14    15    1
    28    14    22    1
    29    14    16    1
    30    16    17    1
    31    16    39    1
    32    16    40    1
    33    17    18    1
    34    17    41    1
    35    17    42    1
    36    18    19    1
    37    18    20    1
    38    18    21    1
    39    20    43    1
    40    20    44    1
    41    20    45    1
    42    21    22    1
    43    21    46    1
    44    21    47    1
    45    22    48    1
    46    22    49    1
    47    23    24    1
    48    23    25    1
    49    23    26    1
    50    24    50    1
    51    24    51    1
    52    24    52    1
    53    25    53    1
    54    25    54    1
    55    25    55    1
    56    26    56    1
    57    26    57    1
    58    26    58    1
    59    27    28   ar
    60    28    59    1
@<TRIPOS>SUBSTRUCTURE
     1 ZINC001284642199        1 TEMP              0 ****  ****    0 ROOT


##########                                Name:    ZINC000542980334
##########                DOCK_Rotatable_Bonds:                   6
##########                         Heavy_Atoms:                  27
##########                    Molecular_Weight:             404.795
##########                DOCK_Rotatable_Bonds:                   6
##########                       Formal_Charge:           0.0300001
##########                     HBond_Acceptors:                  10
##########                        HBond_Donors:                   1
##########                         Heavy_Atoms:                  27
##########                          Grid_Score:          -29.422625
##########                     Grid_vdw_energy:          -30.573765
##########                      Grid_es_energy:            1.151140
##########           Internal_energy_repulsive:           10.556935

@<TRIPOS>MOLECULE
ZINC000542980334
 44 46 1 0 0
SMALL
USER_CHARGES


@<TRIPOS>ATOM
      1 O1         -0.2373    4.4446   48.1022 O.2     1  ZINC000542980334   -0.5800
      2 C2         -0.6351    3.8306   49.0733 C.2     1  ZINC000542980334    0.7100
      3 N3         -0.7487    2.4887   49.0221 N.am    1  ZINC000542980334   -0.7400
      4 C4         -0.3986    1.7702   47.7944 C.3     1  ZINC000542980334    0.1800
      5 C5         -0.6995    0.3036   47.9673 C.ar    1  ZINC000542980334   -0.1400
      6 C6         -2.0088   -0.1437   47.9300 C.ar    1  ZINC000542980334    0.1300
      7 F7         -3.0178    0.7342   47.7387 F       1  ZINC000542980334   -0.1200
      8 C8         -2.2839   -1.4916   48.0886 C.ar    1  ZINC000542980334   -0.1500
      9 C9         -1.2516   -2.3893   48.2838 C.ar    1  ZINC000542980334   -0.0700
     10 C10         0.0561   -1.9425   48.3210 C.ar    1  ZINC000542980334   -0.1200
     11 C11         0.3332   -0.5969   48.1576 C.ar    1  ZINC000542980334    0.0100
     12 Cl12        1.9757   -0.0370   48.2039 Cl      1  ZINC000542980334   -0.0400
     13 N13        -0.9572    4.4916   50.2029 N.am    1  ZINC000542980334   -0.6300
     14 C14        -0.8386    5.9543   50.2739 C.3     1  ZINC000542980334    0.1100
     15 C15         0.0204    6.3209   51.4882 C.3     1  ZINC000542980334   -0.1300
     16 C16        -0.5750    5.6769   52.7423 C.3     1  ZINC000542980334   -0.1300
     17 C17        -0.5686    4.1544   52.5881 C.3     1  ZINC000542980334    0.1400
     18 H18         0.4529    3.8091   52.4284 H       1  ZINC000542980334    0.1100
     19 N19        -1.1089    3.5377   53.8022 N.pl3   1  ZINC000542980334   -0.3400
     20 C20        -0.4120    2.8126   54.7020 C.2     1  ZINC000542980334    0.0600
     21 C21        -1.2710    2.4239   55.6726 C.2     1  ZINC000542980334   -0.2300
     22 C22        -2.5362    2.9288   55.3551 C.2     1  ZINC000542980334   -0.0200
     23 C23        -3.7928    2.7367   56.1645 C.3     1  ZINC000542980334    0.5600
     24 F24        -3.7416    1.5012   56.8190 F       1  ZINC000542980334   -0.1700
     25 F25        -3.8992    3.7616   57.1109 F       1  ZINC000542980334   -0.1700
     26 F26        -4.9040    2.7689   55.3153 F       1  ZINC000542980334   -0.1600
     27 N27        -2.4389    3.6016   54.2373 N.2     1  ZINC000542980334   -0.2300
     28 C28        -1.4396    3.7638   51.3845 C.3     1  ZINC000542980334    0.1300
     29 H29        -1.0625    1.9985   49.7982 H       1  ZINC000542980334    0.4000
     30 H30        -0.9825    2.1653   46.9631 H       1  ZINC000542980334    0.0900
     31 H31         0.6634    1.9012   47.5870 H       1  ZINC000542980334    0.0900
     32 H32        -3.3053   -1.8413   48.0599 H       1  ZINC000542980334    0.1500
     33 H33        -1.4666   -3.4403   48.4077 H       1  ZINC000542980334    0.1500
     34 H34         0.8622   -2.6447   48.4740 H       1  ZINC000542980334    0.1500
     35 H35        -0.3653    6.3271   49.3655 H       1  ZINC000542980334    0.0800
     36 H36        -1.8291    6.3967   50.3802 H       1  ZINC000542980334    0.0800
     37 H37         1.0364    5.9553   51.3388 H       1  ZINC000542980334    0.0800
     38 H38         0.0372    7.4041   51.6083 H       1  ZINC000542980334    0.0900
     39 H39         0.0204    5.9564   53.6116 H       1  ZINC000542980334    0.0800
     40 H40        -1.5994    6.0240   52.8772 H       1  ZINC000542980334    0.0800
     41 H41         0.6424    2.5832   54.6556 H       1  ZINC000542980334    0.1900
     42 H42        -1.0235    1.8285   56.5391 H       1  ZINC000542980334    0.1600
     43 H43        -2.4782    4.0277   51.5840 H       1  ZINC000542980334    0.0800
     44 H44        -1.3604    2.6909   51.2088 H       1  ZINC000542980334    0.1100
@<TRIPOS>BOND
     1     1     2    2
     2     2     3   am
     3     2    13   am
     4     3     4    1
     5     3    29    1
     6     4     5    1
     7     4    30    1
     8     4    31    1
     9     5    11   ar
    10     5     6   ar
    11     6     7    1
    12     6     8   ar
    13     8     9   ar
    14     8    32    1
    15     9    10   ar
    16     9    33    1
    17    10    11   ar
    18    10    34    1
    19    11    12    1
    20    13    28    1
    21    13    14    1
    22    14    15    1
    23    14    35    1
    24    14    36    1
    25    15    16    1
    26    15    37    1
    27    15    38    1
    28    16    17    1
    29    16    39    1
    30    16    40    1
    31    17    18    1
    32    17    19    1
    33    17    28    1
    34    19    27    1
    35    19    20    1
    36    20    21    2
    37    20    41    1
    38    21    22    1
    39    21    42    1
    40    22    23    1
    41    22    27    2
    42    23    24    1
    43    23    25    1
    44    23    26    1
    45    28    43    1
    46    28    44    1
@<TRIPOS>SUBSTRUCTURE
     1 ZINC000542980334        1 TEMP              0 ****  ****    0 ROOT


##########                                Name:    ZINC000989658617
##########                DOCK_Rotatable_Bonds:                   6
##########                         Heavy_Atoms:                  24
##########                    Molecular_Weight:             334.418
##########                DOCK_Rotatable_Bonds:                   6
##########                       Formal_Charge:          -0.0100001
##########                     HBond_Acceptors:                   7
##########                        HBond_Donors:                   2
##########                         Heavy_Atoms:                  24
##########                          Grid_Score:          -29.419111
##########                     Grid_vdw_energy:          -28.039551
##########                      Grid_es_energy:           -1.379560
##########           Internal_energy_repulsive:           11.730878

@<TRIPOS>MOLECULE
ZINC000989658617
 50 52 1 0 0
SMALL
USER_CHARGES


@<TRIPOS>ATOM
      1 C1        -18.5149   -3.0773   59.0892 C.3     1  ZINC000989658617    0.0300
      2 O2        -17.7447   -2.1623   59.8713 O.3     1  ZINC000989658617   -0.3700
      3 C3        -16.3473   -2.1759   59.5731 C.3     1  ZINC000989658617    0.0500
      4 C4        -16.1388   -1.8093   58.1263 C.2     1  ZINC000989658617    0.5300
      5 O5        -16.9299   -1.0811   57.5653 O.2     1  ZINC000989658617   -0.5100
      6 N6        -15.0731   -2.2904   57.4561 N.am    1  ZINC000989658617   -0.6200
      7 C7        -14.0383   -3.1806   58.0128 C.3     1  ZINC000989658617    0.1000
      8 C8        -12.7907   -2.9416   57.1262 C.3     1  ZINC000989658617   -0.1500
      9 C9        -13.4343   -2.7538   55.7269 C.3     1  ZINC000989658617    0.1400
     10 H10       -13.6370   -3.7191   55.2629 H       1  ZINC000989658617    0.1100
     11 N11       -12.5746   -1.9375   54.8663 N.am    1  ZINC000989658617   -0.7100
     12 C12       -11.6435   -2.5269   54.0902 C.2     1  ZINC000989658617    0.6100
     13 O13       -11.5162   -3.7357   54.1055 O.2     1  ZINC000989658617   -0.5200
     14 C14       -10.7779   -1.7040   53.2212 C.2     1  ZINC000989658617   -0.0100
     15 N15       -10.3139   -2.0345   52.0280 N.2     1  ZINC000989658617   -0.2600
     16 N16        -9.5911   -1.0798   51.5527 N.pl3   1  ZINC000989658617   -0.3700
     17 C17        -9.5457   -0.0590   52.4245 C.2     1  ZINC000989658617    0.0100
     18 C18       -10.2922   -0.4153   53.4988 C.2     1  ZINC000989658617   -0.1400
     19 C19       -10.5041    0.4439   54.7147 C.3     1  ZINC000989658617   -0.0400
     20 C20        -9.4432    1.5529   54.7116 C.3     1  ZINC000989658617   -0.0900
     21 H21        -8.4657    1.1211   54.9260 H       1  ZINC000989658617    0.0700
     22 C22        -9.7877    2.5910   55.7813 C.3     1  ZINC000989658617   -0.1500
     23 C23        -9.4128    2.2275   53.3374 C.3     1  ZINC000989658617   -0.1100
     24 C24        -8.8312    1.2620   52.2988 C.3     1  ZINC000989658617   -0.0500
     25 C25       -14.7536   -2.0197   56.0467 C.3     1  ZINC000989658617    0.1300
     26 H26       -14.6261   -0.9472   55.9002 H       1  ZINC000989658617    0.0800
     27 C27       -15.8712   -2.5393   55.1401 C.3     1  ZINC000989658617   -0.1600
     28 H28       -18.4090   -2.8309   58.0327 H       1  ZINC000989658617    0.0500
     29 H29       -18.1589   -4.0929   59.2627 H       1  ZINC000989658617    0.0400
     30 H30       -19.5642   -3.0063   59.3755 H       1  ZINC000989658617    0.0900
     31 H31       -15.8332   -1.4548   60.2085 H       1  ZINC000989658617    0.0800
     32 H32       -15.9463   -3.1728   59.7567 H       1  ZINC000989658617    0.0800
     33 H33       -13.8249   -2.9137   59.0478 H       1  ZINC000989658617    0.0800
     34 H34       -14.3570   -4.2209   57.9465 H       1  ZINC000989658617    0.0800
     35 H35       -12.2584   -2.0420   57.4353 H       1  ZINC000989658617    0.0800
     36 H36       -12.1301   -3.8085   57.1392 H       1  ZINC000989658617    0.1000
     37 H37       -12.6753   -0.9728   54.8550 H       1  ZINC000989658617    0.4100
     38 H38        -9.1451   -1.0958   50.6915 H       1  ZINC000989658617    0.4500
     39 H39       -11.4993    0.8872   54.6824 H       1  ZINC000989658617    0.0800
     40 H40       -10.4000   -0.1615   55.6151 H       1  ZINC000989658617    0.0800
     41 H41        -9.8088    2.1112   56.7598 H       1  ZINC000989658617    0.0600
     42 H42        -9.0344    3.3788   55.7792 H       1  ZINC000989658617    0.0600
     43 H43       -10.7655    3.0228   55.5673 H       1  ZINC000989658617    0.0600
     44 H44       -10.4264    2.5021   53.0455 H       1  ZINC000989658617    0.0700
     45 H45        -8.7946    3.1240   53.3869 H       1  ZINC000989658617    0.0800
     46 H46        -7.7673    1.1178   52.4866 H       1  ZINC000989658617    0.0800
     47 H47        -8.9762    1.6685   51.2979 H       1  ZINC000989658617    0.0800
     48 H48       -16.0053   -3.6084   55.3049 H       1  ZINC000989658617    0.0600
     49 H49       -16.7993   -2.0167   55.3715 H       1  ZINC000989658617    0.0700
     50 H50       -15.6050   -2.3630   54.0978 H       1  ZINC000989658617    0.0700
@<TRIPOS>BOND
     1     1     2    1
     2     1    28    1
     3     1    29    1
     4     1    30    1
     5     2     3    1
     6     3     4    1
     7     3    31    1
     8     3    32    1
     9     4     5    2
    10     4     6   am
    11     6    25    1
    12     6     7    1
    13     7     8    1
    14     7    33    1
    15     7    34    1
    16     8     9    1
    17     8    35    1
    18     8    36    1
    19     9    10    1
    20     9    11    1
    21     9    25    1
    22    11    12   am
    23    11    37    1
    24    12    13    2
    25    12    14    1
    26    14    18    1
    27    14    15    2
    28    15    16    1
    29    16    17    1
    30    16    38    1
    31    17    24    1
    32    17    18    2
    33    18    19    1
    34    19    20    1
    35    19    39    1
    36    19    40    1
    37    20    21    1
    38    20    22    1
    39    20    23    1
    40    22    41    1
    41    22    42    1
    42    22    43    1
    43    23    24    1
    44    23    44    1
    45    23    45    1
    46    24    46    1
    47    24    47    1
    48    25    26    1
    49    25    27    1
    50    27    48    1
    51    27    49    1
    52    27    50    1
@<TRIPOS>SUBSTRUCTURE
     1 ZINC000989658617        1 TEMP              0 ****  ****    0 ROOT


##########                                Name:    ZINC001018437438
##########                DOCK_Rotatable_Bonds:                   8
##########                         Heavy_Atoms:                  24
##########                    Molecular_Weight:              333.39
##########                DOCK_Rotatable_Bonds:                   8
##########                       Formal_Charge:        -4.17233e-07
##########                     HBond_Acceptors:                   8
##########                        HBond_Donors:                   4
##########                         Heavy_Atoms:                  24
##########                          Grid_Score:          -29.406204
##########                     Grid_vdw_energy:          -29.322071
##########                      Grid_es_energy:           -0.084133
##########           Internal_energy_repulsive:           90.937164

@<TRIPOS>MOLECULE
ZINC001018437438
 47 49 1 0 0
SMALL
USER_CHARGES


@<TRIPOS>ATOM
      1 C1          0.6141    1.7951   44.7914 C.3     1  ZINC001018437438   -0.1400
      2 C2          0.7902    1.9240   46.3057 C.3     1  ZINC001018437438    0.1400
      3 H3          1.6608    1.3497   46.6226 H       1  ZINC001018437438    0.0700
      4 C4          0.9842    3.3975   46.6767 C.3     1  ZINC001018437438   -0.1300
      5 C5          1.0204    3.5354   48.2005 C.3     1  ZINC001018437438   -0.1300
      6 C6         -0.3101    3.0603   48.7890 C.3     1  ZINC001018437438    0.1300
      7 H7         -1.1247    3.6510   48.3702 H       1  ZINC001018437438    0.1000
      8 N8         -0.2865    3.2227   50.2448 N.am    1  ZINC001018437438   -0.7200
      9 C9         -1.4345    3.4368   50.9176 C.2     1  ZINC001018437438    0.6000
     10 O10        -2.4903    3.4938   50.3164 O.2     1  ZINC001018437438   -0.5100
     11 C11        -1.4106    3.6017   52.3798 C.2     1  ZINC001018437438   -0.0400
     12 C12        -2.4932    3.5426   53.2402 C.2     1  ZINC001018437438   -0.1400
     13 C13        -1.9648    3.7588   54.5150 C.2     1  ZINC001018437438    0.0600
     14 C14        -2.7436    3.7896   55.8046 C.3     1  ZINC001018437438   -0.0800
     15 C15        -3.1261    2.4472   56.4312 C.3     1  ZINC001018437438   -0.1700
     16 C16        -2.0333    3.3061   57.0707 C.3     1  ZINC001018437438   -0.1600
     17 N17        -0.6732    3.9290   54.3905 N.2     1  ZINC001018437438   -0.2600
     18 N18        -0.3149    3.8380   53.1604 N.pl3   1  ZINC001018437438   -0.3800
     19 C19        -0.5188    1.5830   48.4420 C.3     1  ZINC001018437438    0.1000
     20 N20        -0.4089    1.4161   46.9860 N.am    1  ZINC001018437438   -0.6100
     21 C21        -1.3916    0.8134   46.2878 C.2     1  ZINC001018437438    0.5200
     22 O22        -1.2912    0.6859   45.0859 O.2     1  ZINC001018437438   -0.4800
     23 C23        -2.6153    0.2979   47.0007 C.3     1  ZINC001018437438   -0.1700
     24 C24        -2.2442   -0.9047   47.8298 C.2     1  ZINC001018437438    0.5200
     25 N25        -1.2484   -1.7190   47.4278 N.am    1  ZINC001018437438   -0.8600
     26 O26        -2.8417   -1.1395   48.8587 O.2     1  ZINC001018437438   -0.5000
     27 H27        -0.3115    2.2857   44.4902 H       1  ZINC001018437438    0.0700
     28 H28         1.4566    2.2674   44.2862 H       1  ZINC001018437438    0.0500
     29 H29         0.5718    0.7406   44.5189 H       1  ZINC001018437438    0.0800
     30 H30         1.9232    3.7578   46.2564 H       1  ZINC001018437438    0.0900
     31 H31         0.1574    3.9851   46.2778 H       1  ZINC001018437438    0.0700
     32 H32         1.8322    2.9281   48.6009 H       1  ZINC001018437438    0.0700
     33 H33         1.1831    4.5797   48.4669 H       1  ZINC001018437438    0.0800
     34 H34         0.5553    3.1762   50.7245 H       1  ZINC001018437438    0.4000
     35 H35        -3.5267    3.3668   52.9810 H       1  ZINC001018437438    0.1700
     36 H36        -3.4503    4.6131   55.9075 H       1  ZINC001018437438    0.1200
     37 H37        -4.0849    2.3873   56.9463 H       1  ZINC001018437438    0.1000
     38 H38        -2.8146    1.5418   55.9105 H       1  ZINC001018437438    0.1000
     39 H39        -1.0026    2.9657   56.9706 H       1  ZINC001018437438    0.1000
     40 H40        -2.2730    3.8112   58.0063 H       1  ZINC001018437438    0.1000
     41 H41         0.5942    3.9300   52.8347 H       1  ZINC001018437438    0.4400
     42 H42         0.2440    0.9805   48.9353 H       1  ZINC001018437438    0.0700
     43 H43        -1.5079    1.2661   48.7726 H       1  ZINC001018437438    0.0900
     44 H44        -3.0132    1.0779   47.6497 H       1  ZINC001018437438    0.1200
     45 H45        -3.3706    0.0148   46.2677 H       1  ZINC001018437438    0.1200
     46 H46        -1.0101   -2.4936   47.9607 H       1  ZINC001018437438    0.4000
     47 H47        -0.7698   -1.5303   46.6054 H       1  ZINC001018437438    0.4000
@<TRIPOS>BOND
     1     1     2    1
     2     1    27    1
     3     1    28    1
     4     1    29    1
     5     2     3    1
     6     2    20    1
     7     2     4    1
     8     4     5    1
     9     4    30    1
    10     4    31    1
    11     5     6    1
    12     5    32    1
    13     5    33    1
    14     6     7    1
    15     6     8    1
    16     6    19    1
    17     8     9   am
    18     8    34    1
    19     9    10    2
    20     9    11    1
    21    11    18    1
    22    11    12    2
    23    12    13    1
    24    12    35    1
    25    13    14    1
    26    13    17    2
    27    14    16    1
    28    14    15    1
    29    14    36    1
    30    15    16    1
    31    15    37    1
    32    15    38    1
    33    16    39    1
    34    16    40    1
    35    17    18    1
    36    18    41    1
    37    19    20    1
    38    19    42    1
    39    19    43    1
    40    20    21   am
    41    21    22    2
    42    21    23    1
    43    23    24    1
    44    23    44    1
    45    23    45    1
    46    24    25   am
    47    24    26    2
    48    25    46    1
    49    25    47    1
@<TRIPOS>SUBSTRUCTURE
     1 ZINC001018437438        1 TEMP              0 ****  ****    0 ROOT


##########                                Name:    ZINC000981048968
##########                DOCK_Rotatable_Bonds:                   7
##########                         Heavy_Atoms:                  25
##########                    Molecular_Weight:             344.414
##########                DOCK_Rotatable_Bonds:                   7
##########                       Formal_Charge:                0.02
##########                     HBond_Acceptors:                   7
##########                        HBond_Donors:                   2
##########                         Heavy_Atoms:                  25
##########                          Grid_Score:          -29.369196
##########                     Grid_vdw_energy:          -29.006588
##########                      Grid_es_energy:           -0.362609
##########           Internal_energy_repulsive:            5.740349

@<TRIPOS>MOLECULE
ZINC000981048968
 49 52 1 0 0
SMALL
USER_CHARGES


@<TRIPOS>ATOM
      1 C1         -5.6142    5.0421   57.9806 C.3     1  ZINC000981048968   -0.0800
      2 C2         -5.2212    4.7658   56.5522 C.2     1  ZINC000981048968   -0.0100
      3 C3         -4.0324    4.2907   56.1504 C.2     1  ZINC000981048968   -0.1600
      4 C4         -4.1135    4.1849   54.6863 C.2     1  ZINC000981048968   -0.2300
      5 C5         -3.0625    3.7119   53.7677 C.2     1  ZINC000981048968    0.5900
      6 O6         -2.0258    3.2574   54.2123 O.2     1  ZINC000981048968   -0.5300
      7 N7         -3.2504    3.7829   52.4350 N.am    1  ZINC000981048968   -0.7300
      8 C8         -2.2050    3.3143   51.5219 C.3     1  ZINC000981048968    0.1500
      9 H9         -1.5263    2.6500   52.0568 H       1  ZINC000981048968    0.0900
     10 C10        -1.4241    4.5143   50.9820 C.3     1  ZINC000981048968   -0.1300
     11 C11        -0.3323    4.0250   50.0284 C.3     1  ZINC000981048968   -0.1200
     12 C12        -0.9740    3.2682   48.8637 C.3     1  ZINC000981048968   -0.1100
     13 C13        -1.7549    2.0684   49.4035 C.3     1  ZINC000981048968    0.1000
     14 H14        -1.0762    1.4041   49.9385 H       1  ZINC000981048968    0.0500
     15 N15        -2.3710    1.3419   48.2853 N.3     1  ZINC000981048968   -0.6800
     16 C16        -1.3861    0.4916   47.6034 C.3     1  ZINC000981048968    0.1500
     17 C17        -1.2143    0.9623   46.1822 C.2     1  ZINC000981048968    0.1800
     18 N18        -2.0913    0.8647   45.2283 N.2     1  ZINC000981048968   -0.3800
     19 O19        -1.6499    1.3376   44.2022 O.3     1  ZINC000981048968    0.0800
     20 C20        -0.4119    1.7959   44.4104 C.2     1  ZINC000981048968    0.2100
     21 C21         0.4837    2.4557   43.3937 C.3     1  ZINC000981048968   -0.0800
     22 C22         1.9446    2.6882   43.7844 C.3     1  ZINC000981048968   -0.1600
     23 C23         1.5883    1.6031   42.7662 C.3     1  ZINC000981048968   -0.1500
     24 N24        -0.1272    1.5660   45.6696 N.2     1  ZINC000981048968   -0.4600
     25 C25        -2.8467    2.5577   50.3571 C.3     1  ZINC000981048968   -0.1300
     26 C26        -5.3651    4.6152   54.3558 C.2     1  ZINC000981048968    0.0200
     27 O27        -6.0064    4.9502   55.4795 O.3     1  ZINC000981048968   -0.1700
     28 H28        -6.6374    5.4165   58.0100 H       1  ZINC000981048968    0.0800
     29 H29        -5.5474    4.1215   58.5604 H       1  ZINC000981048968    0.0900
     30 H30        -4.9420    5.7881   58.4046 H       1  ZINC000981048968    0.0900
     31 H31        -3.1883    4.0380   56.7749 H       1  ZINC000981048968    0.1600
     32 H32        -4.0778    4.1442   52.0804 H       1  ZINC000981048968    0.4000
     33 H33        -2.1028    5.1786   50.4470 H       1  ZINC000981048968    0.0700
     34 H34        -0.9669    5.0533   51.8117 H       1  ZINC000981048968    0.0700
     35 H35         0.2241    4.8797   49.6438 H       1  ZINC000981048968    0.0700
     36 H36         0.3464    3.3606   50.5633 H       1  ZINC000981048968    0.0600
     37 H37        -1.6527    3.9326   48.3287 H       1  ZINC000981048968    0.0700
     38 H38        -0.1962    2.9196   48.1843 H       1  ZINC000981048968    0.0700
     39 H39        -3.1619    0.7992   48.5986 H       1  ZINC000981048968    0.3500
     40 H40        -0.4307    0.5528   48.1245 H       1  ZINC000981048968    0.1100
     41 H41        -1.7351   -0.5410   47.6044 H       1  ZINC000981048968    0.0600
     42 H42         0.0060    3.2048   42.7622 H       1  ZINC000981048968    0.1500
     43 H43         2.4283    3.5903   43.4101 H       1  ZINC000981048968    0.1200
     44 H44         2.2579    2.3638   44.7768 H       1  ZINC000981048968    0.1100
     45 H45         1.6672    0.5649   43.0888 H       1  ZINC000981048968    0.1000
     46 H46         1.8377    1.7915   41.7220 H       1  ZINC000981048968    0.1200
     47 H47        -3.4030    1.7029   50.7417 H       1  ZINC000981048968    0.0700
     48 H48        -3.5254    3.2220   49.8222 H       1  ZINC000981048968    0.0800
     49 H49        -5.7702    4.6720   53.3562 H       1  ZINC000981048968    0.2100
@<TRIPOS>BOND
     1     1     2    1
     2     1    28    1
     3     1    29    1
     4     1    30    1
     5     2    27    1
     6     2     3    2
     7     3     4    1
     8     3    31    1
     9     4     5    1
    10     4    26    2
    11     5     6    2
    12     5     7   am
    13     7     8    1
    14     7    32    1
    15     8     9    1
    16     8    25    1
    17     8    10    1
    18    10    11    1
    19    10    33    1
    20    10    34    1
    21    11    12    1
    22    11    35    1
    23    11    36    1
    24    12    13    1
    25    12    37    1
    26    12    38    1
    27    13    14    1
    28    13    15    1
    29    13    25    1
    30    15    16    1
    31    15    39    1
    32    16    17    1
    33    16    40    1
    34    16    41    1
    35    17    24    1
    36    17    18    2
    37    18    19    1
    38    19    20    1
    39    20    21    1
    40    20    24    2
    41    21    23    1
    42    21    22    1
    43    21    42    1
    44    22    23    1
    45    22    43    1
    46    22    44    1
    47    23    45    1
    48    23    46    1
    49    25    47    1
    50    25    48    1
    51    26    27    1
    52    26    49    1
@<TRIPOS>SUBSTRUCTURE
     1 ZINC000981048968        1 TEMP              0 ****  ****    0 ROOT


##########                                Name:    ZINC001296589646
##########                DOCK_Rotatable_Bonds:                   8
##########                         Heavy_Atoms:                  29
##########                    Molecular_Weight:             398.548
##########                DOCK_Rotatable_Bonds:                   8
##########                       Formal_Charge:          -0.0200008
##########                     HBond_Acceptors:                   6
##########                        HBond_Donors:                   0
##########                         Heavy_Atoms:                  29
##########                          Grid_Score:          -29.368320
##########                     Grid_vdw_energy:          -29.573933
##########                      Grid_es_energy:            0.205611
##########           Internal_energy_repulsive:           31.475765

@<TRIPOS>MOLECULE
ZINC001296589646
 63 66 1 0 0
SMALL
USER_CHARGES


@<TRIPOS>ATOM
      1 C1          0.7673   -1.6338   48.4427 C.3     1  ZINC001296589646   -0.1500
      2 C2         -0.5327   -1.0009   47.9424 C.3     1  ZINC001296589646    0.0500
      3 O3         -0.2290    0.0288   46.9992 O.3     1  ZINC001296589646   -0.3600
      4 C4         -1.3091    0.9326   46.7574 C.3     1  ZINC001296589646    0.1800
      5 C5         -1.6978    1.6509   48.0240 C.2     1  ZINC001296589646    0.1500
      6 N6         -2.7338    1.3932   48.7709 N.2     1  ZINC001296589646   -0.2600
      7 N7         -2.7645    2.1962   49.7740 N.2     1  ZINC001296589646   -0.3200
      8 C8         -1.7413    3.0159   49.7203 C.2     1  ZINC001296589646    0.3600
      9 N9         -1.4412    4.0194   50.6278 N.3     1  ZINC001296589646   -0.4300
     10 C10        -2.6161    4.8987   50.8571 C.3     1  ZINC001296589646    0.0300
     11 C11        -2.2932    5.5756   52.2128 C.3     1  ZINC001296589646   -0.1200
     12 C12        -1.6138    4.4406   53.0129 C.3     1  ZINC001296589646   -0.1000
     13 H13        -2.3376    3.9511   53.6643 H       1  ZINC001296589646    0.0800
     14 C14        -0.4492    4.9946   53.8361 C.3     1  ZINC001296589646   -0.1400
     15 C15        -1.0975    3.4529   51.9501 C.3     1  ZINC001296589646    0.0500
     16 N16        -1.0255    2.6899   48.6054 N.pl3   1  ZINC001296589646   -0.4600
     17 C17         0.2032    3.3274   48.1254 C.3     1  ZINC001296589646    0.1000
     18 C18         1.4152    2.5335   48.6169 C.3     1  ZINC001296589646   -0.1300
     19 C19         2.6948    3.3141   48.3101 C.3     1  ZINC001296589646   -0.0500
     20 H20         2.6623    4.2786   48.8167 H       1  ZINC001296589646    0.0800
     21 C21         3.9068    2.5203   48.8016 C.3     1  ZINC001296589646   -0.1500
     22 C22         2.8060    3.5316   46.8230 C.ar    1  ZINC001296589646   -0.0800
     23 C23         2.2592    4.6631   46.2470 C.ar    1  ZINC001296589646   -0.1100
     24 C24         2.3613    4.8625   44.8830 C.ar    1  ZINC001296589646   -0.1200
     25 C25         3.0104    3.9306   44.0948 C.ar    1  ZINC001296589646   -0.1200
     26 C26         3.5578    2.7996   44.6708 C.ar    1  ZINC001296589646   -0.1200
     27 C27         3.4596    2.6022   46.0355 C.ar    1  ZINC001296589646   -0.1200
     28 C28        -2.5258    0.1882   46.1432 C.3     1  ZINC001296589646   -0.1400
     29 C29        -2.1396    0.1813   44.6427 C.3     1  ZINC001296589646    0.0600
     30 O30        -1.4902    1.4425   44.4167 O.3     1  ZINC001296589646   -0.3700
     31 C31        -0.9449    1.9389   45.6447 C.3     1  ZINC001296589646    0.0400
     32 H32         1.2678   -2.1377   47.6159 H       1  ZINC001296589646    0.0600
     33 H33         1.4190   -0.8571   48.8429 H       1  ZINC001296589646    0.0700
     34 H34         0.5412   -2.3574   49.2259 H       1  ZINC001296589646    0.0700
     35 H35        -1.1468   -1.7631   47.4629 H       1  ZINC001296589646    0.0500
     36 H36        -1.0764   -0.5732   48.7846 H       1  ZINC001296589646    0.0600
     37 H37        -2.6997    5.6433   50.0655 H       1  ZINC001296589646    0.0900
     38 H38        -3.5298    4.3088   50.9297 H       1  ZINC001296589646    0.0600
     39 H39        -1.6087    6.4122   52.0729 H       1  ZINC001296589646    0.0800
     40 H40        -3.2075    5.9027   52.7081 H       1  ZINC001296589646    0.0800
     41 H41        -0.8252    5.7280   54.5496 H       1  ZINC001296589646    0.0600
     42 H42         0.0356    4.1799   54.3739 H       1  ZINC001296589646    0.0600
     43 H43         0.2715    5.4709   53.1714 H       1  ZINC001296589646    0.0600
     44 H44        -1.5819    2.4846   52.0765 H       1  ZINC001296589646    0.0800
     45 H45        -0.0165    3.3444   52.0379 H       1  ZINC001296589646    0.0900
     46 H46         0.2000    3.3481   47.0356 H       1  ZINC001296589646    0.1100
     47 H47         0.2571    4.3466   48.5080 H       1  ZINC001296589646    0.1000
     48 H48         1.3347    2.3761   49.6925 H       1  ZINC001296589646    0.0800
     49 H49         1.4475    1.5690   48.1101 H       1  ZINC001296589646    0.0700
     50 H50         4.8184    3.0765   48.5828 H       1  ZINC001296589646    0.0600
     51 H51         3.8263    2.3631   49.8771 H       1  ZINC001296589646    0.0600
     52 H52         3.9393    1.5558   48.2948 H       1  ZINC001296589646    0.0600
     53 H53         1.7521    5.3912   46.8629 H       1  ZINC001296589646    0.1200
     54 H54         1.9335    5.7462   44.4330 H       1  ZINC001296589646    0.1200
     55 H55         3.0894    4.0862   43.0290 H       1  ZINC001296589646    0.1200
     56 H56         4.0646    2.0714   44.0550 H       1  ZINC001296589646    0.1200
     57 H57         3.8873    1.7185   46.4855 H       1  ZINC001296589646    0.1200
     58 H58        -2.6034   -0.8266   46.5335 H       1  ZINC001296589646    0.1000
     59 H59        -3.4498    0.7423   46.3085 H       1  ZINC001296589646    0.1000
     60 H60        -1.4545   -0.6400   44.4321 H       1  ZINC001296589646    0.0700
     61 H61        -3.0322    0.0989   44.0226 H       1  ZINC001296589646    0.0900
     62 H62        -1.3751    2.9141   45.8728 H       1  ZINC001296589646    0.1000
     63 H63         0.1387    2.0218   45.5613 H       1  ZINC001296589646    0.0800
@<TRIPOS>BOND
     1     1     2    1
     2     1    32    1
     3     1    33    1
     4     1    34    1
     5     2     3    1
     6     2    35    1
     7     2    36    1
     8     3     4    1
     9     4    31    1
    10     4     5    1
    11     4    28    1
    12     5    16    1
    13     5     6    2
    14     6     7    1
    15     7     8    2
    16     8     9    1
    17     8    16    1
    18     9    15    1
    19     9    10    1
    20    10    11    1
    21    10    37    1
    22    10    38    1
    23    11    12    1
    24    11    39    1
    25    11    40    1
    26    12    13    1
    27    12    14    1
    28    12    15    1
    29    14    41    1
    30    14    42    1
    31    14    43    1
    32    15    44    1
    33    15    45    1
    34    16    17    1
    35    17    18    1
    36    17    46    1
    37    17    47    1
    38    18    19    1
    39    18    48    1
    40    18    49    1
    41    19    20    1
    42    19    21    1
    43    19    22    1
    44    21    50    1
    45    21    51    1
    46    21    52    1
    47    22    27   ar
    48    22    23   ar
    49    23    24   ar
    50    23    53    1
    51    24    25   ar
    52    24    54    1
    53    25    26   ar
    54    25    55    1
    55    26    27   ar
    56    26    56    1
    57    27    57    1
    58    28    29    1
    59    28    58    1
    60    28    59    1
    61    29    30    1
    62    29    60    1
    63    29    61    1
    64    30    31    1
    65    31    62    1
    66    31    63    1
@<TRIPOS>SUBSTRUCTURE
     1 ZINC001296589646        1 TEMP              0 ****  ****    0 ROOT


##########                                Name:    ZINC000438893617
##########                DOCK_Rotatable_Bonds:                   5
##########                         Heavy_Atoms:                  29
##########                    Molecular_Weight:             412.596
##########                DOCK_Rotatable_Bonds:                   5
##########                       Formal_Charge:           0.0600001
##########                     HBond_Acceptors:                   5
##########                        HBond_Donors:                   0
##########                         Heavy_Atoms:                  29
##########                          Grid_Score:          -29.334303
##########                     Grid_vdw_energy:          -28.327873
##########                      Grid_es_energy:           -1.006431
##########           Internal_energy_repulsive:          165.523041

@<TRIPOS>MOLECULE
ZINC000438893617
 61 66 1 0 0
SMALL
USER_CHARGES


@<TRIPOS>ATOM
      1 C1        -11.0263    1.0099   63.8620 C.3     1  ZINC000438893617   -0.1000
      2 C2         -9.5622    0.6760   63.7356 C.2     1  ZINC000438893617   -0.0900
      3 C3         -9.1213   -0.3550   63.0132 C.2     1  ZINC000438893617   -0.1600
      4 C4         -9.9934   -1.3098   62.2393 C.3     1  ZINC000438893617   -0.0400
      5 H5        -10.5955   -1.9900   62.8416 H       1  ZINC000438893617    0.1400
      6 C6         -9.4573   -1.8334   60.9054 C.3     1  ZINC000438893617   -0.1400
      7 C7        -10.5950   -0.8096   60.9245 C.3     1  ZINC000438893617   -0.1800
      8 H8        -10.3598    0.2099   60.6190 H       1  ZINC000438893617    0.1300
      9 C9        -11.9744   -1.2953   60.5605 C.2     1  ZINC000438893617    0.5500
     10 O10       -12.7901   -1.5127   61.4312 O.2     1  ZINC000438893617   -0.5300
     11 N11       -12.3014   -1.4881   59.2672 N.am    1  ZINC000438893617   -0.6100
     12 C12       -13.6440   -1.9572   58.8971 C.3     1  ZINC000438893617    0.0900
     13 C13       -14.2527   -0.9635   57.8999 C.3     1  ZINC000438893617    0.1000
     14 N14       -13.2732   -0.7077   56.8346 N.am    1  ZINC000438893617   -0.6100
     15 C15       -13.6005   -0.8995   55.5413 C.2     1  ZINC000438893617    0.5300
     16 O16       -14.7118   -1.2866   55.2480 O.2     1  ZINC000438893617   -0.5300
     17 C17       -12.5855   -0.6330   54.4597 C.3     1  ZINC000438893617   -0.0700
     18 C18       -13.2248   -0.8716   53.0903 C.3     1  ZINC000438893617   -0.1100
     19 C19       -12.1943   -0.6010   51.9923 C.3     1  ZINC000438893617   -0.0800
     20 C20       -11.0012   -1.5424   52.1693 C.3     1  ZINC000438893617   -0.1100
     21 C21       -10.3620   -1.3037   53.5386 C.3     1  ZINC000438893617   -0.0800
     22 C22        -9.8852    0.1470   53.6330 C.3     1  ZINC000438893617   -0.1100
     23 C23       -11.0782    1.0885   53.4560 C.3     1  ZINC000438893617   -0.0900
     24 C24       -11.7175    0.8497   52.0866 C.3     1  ZINC000438893617   -0.1100
     25 C25       -12.1088    0.8178   54.5540 C.3     1  ZINC000438893617   -0.0900
     26 C26       -11.3924   -1.5744   54.6367 C.3     1  ZINC000438893617   -0.1200
     27 C27       -11.9305   -0.2386   57.2047 C.3     1  ZINC000438893617    0.0700
     28 C28       -11.3236   -1.2269   58.2016 C.3     1  ZINC000438893617    0.1000
     29 S29        -7.3663   -0.4294   63.1015 S.3     1  ZINC000438893617    0.1000
     30 C30        -7.3289    0.9857   64.1454 C.2     1  ZINC000438893617   -0.2100
     31 C31        -8.5727    1.4193   64.3556 C.2     1  ZINC000438893617   -0.1300
     32 H32       -11.3131    1.6944   63.0636 H       1  ZINC000438893617    0.0700
     33 H33       -11.6154    0.0959   63.7860 H       1  ZINC000438893617    0.0700
     34 H34       -11.2094    1.4811   64.8277 H       1  ZINC000438893617    0.0700
     35 H35        -8.4738   -1.4874   60.5876 H       1  ZINC000438893617    0.1100
     36 H36        -9.7070   -2.8581   60.6300 H       1  ZINC000438893617    0.1100
     37 H37       -13.5731   -2.9419   58.4352 H       1  ZINC000438893617    0.0800
     38 H38       -14.2707   -2.0122   59.7873 H       1  ZINC000438893617    0.1000
     39 H39       -15.1598   -1.3872   57.4688 H       1  ZINC000438893617    0.1100
     40 H40       -14.4891   -0.0304   58.4113 H       1  ZINC000438893617    0.0700
     41 H41       -13.5644   -1.9052   53.0231 H       1  ZINC000438893617    0.0800
     42 H42       -14.0747   -0.2010   52.9642 H       1  ZINC000438893617    0.0700
     43 H43       -12.6497   -0.7712   51.0167 H       1  ZINC000438893617    0.0800
     44 H44       -11.3408   -2.5760   52.1021 H       1  ZINC000438893617    0.0600
     45 H45       -10.2671   -1.3497   51.3870 H       1  ZINC000438893617    0.0700
     46 H46        -9.5120   -1.9744   53.6647 H       1  ZINC000438893617    0.0800
     47 H47        -9.4297    0.3172   54.6085 H       1  ZINC000438893617    0.0600
     48 H48        -9.1510    0.3398   52.8508 H       1  ZINC000438893617    0.0700
     49 H49       -10.7386    2.1220   53.5232 H       1  ZINC000438893617    0.0700
     50 H50       -10.9834    1.0425   51.3043 H       1  ZINC000438893617    0.0700
     51 H51       -12.5674    1.5204   51.9605 H       1  ZINC000438893617    0.0600
     52 H52       -12.9587    1.4885   54.4279 H       1  ZINC000438893617    0.0700
     53 H53       -11.6533    0.9879   55.5297 H       1  ZINC000438893617    0.0700
     54 H54       -10.9370   -1.4042   55.6123 H       1  ZINC000438893617    0.0700
     55 H55       -11.7320   -2.6078   54.5695 H       1  ZINC000438893617    0.0800
     56 H56       -11.3039   -0.1836   56.3146 H       1  ZINC000438893617    0.1300
     57 H57       -12.0015    0.7461   57.6666 H       1  ZINC000438893617    0.0800
     58 H58       -10.4167   -0.8021   58.6318 H       1  ZINC000438893617    0.1100
     59 H59       -11.0870   -2.1613   57.6925 H       1  ZINC000438893617    0.0700
     60 H60        -6.4353    1.4371   64.5504 H       1  ZINC000438893617    0.1700
     61 H61        -8.7918    2.2803   64.9697 H       1  ZINC000438893617    0.1400
@<TRIPOS>BOND
     1     1     2    1
     2     1    32    1
     3     1    33    1
     4     1    34    1
     5     2    31    1
     6     2     3    2
     7     3     4    1
     8     3    29    1
     9     4     5    1
    10     4     7    1
    11     4     6    1
    12     6     7    1
    13     6    35    1
    14     6    36    1
    15     7     8    1
    16     7     9    1
    17     9    10    2
    18     9    11   am
    19    11    28    1
    20    11    12    1
    21    12    13    1
    22    12    37    1
    23    12    38    1
    24    13    14    1
    25    13    39    1
    26    13    40    1
    27    14    15   am
    28    14    27    1
    29    15    16    2
    30    15    17    1
    31    17    25    1
    32    17    26    1
    33    17    18    1
    34    18    19    1
    35    18    41    1
    36    18    42    1
    37    19    24    1
    38    19    20    1
    39    19    43    1
    40    20    21    1
    41    20    44    1
    42    20    45    1
    43    21    22    1
    44    21    26    1
    45    21    46    1
    46    22    23    1
    47    22    47    1
    48    22    48    1
    49    23    24    1
    50    23    25    1
    51    23    49    1
    52    24    50    1
    53    24    51    1
    54    25    52    1
    55    25    53    1
    56    26    54    1
    57    26    55    1
    58    27    28    1
    59    27    56    1
    60    27    57    1
    61    28    58    1
    62    28    59    1
    63    29    30    1
    64    30    31    2
    65    30    60    1
    66    31    61    1
@<TRIPOS>SUBSTRUCTURE
     1 ZINC000438893617        1 TEMP              0 ****  ****    0 ROOT


##########                                Name:    ZINC000439870054
##########                DOCK_Rotatable_Bonds:                   5
##########                         Heavy_Atoms:                  27
##########                    Molecular_Weight:             421.974
##########                DOCK_Rotatable_Bonds:                   5
##########                       Formal_Charge:           0.0200003
##########                     HBond_Acceptors:                   9
##########                        HBond_Donors:                   0
##########                         Heavy_Atoms:                  27
##########                          Grid_Score:          -29.305937
##########                     Grid_vdw_energy:          -28.288111
##########                      Grid_es_energy:           -1.017826
##########           Internal_energy_repulsive:           63.009430

@<TRIPOS>MOLECULE
ZINC000439870054
 47 50 1 0 0
SMALL
USER_CHARGES


@<TRIPOS>ATOM
      1 C1         -2.7721    5.2547   50.0737 C.3     1  ZINC000439870054   -0.1400
      2 C2         -2.6892    4.0310   50.9882 C.3     1  ZINC000439870054    0.0000
      3 C3         -3.9023    4.0078   51.9204 C.3     1  ZINC000439870054   -0.1400
      4 C4         -2.6751    2.7781   50.1510 C.2     1  ZINC000439870054    0.1900
      5 N5         -3.6008    1.8543   50.1191 N.2     1  ZINC000439870054   -0.2900
      6 N6         -3.2599    0.9244   49.2938 N.2     1  ZINC000439870054   -0.2700
      7 C7         -2.1090    1.2132   48.7697 C.2     1  ZINC000439870054    0.1600
      8 C8         -1.3045    0.4233   47.7657 C.3     1  ZINC000439870054    0.2400
      9 H9         -0.8947   -0.4698   48.2373 H       1  ZINC000439870054    0.1100
     10 C10        -2.1896    0.0289   46.5817 C.3     1  ZINC000439870054   -0.1300
     11 N11        -0.2088    1.2987   47.3078 N.am    1  ZINC000439870054   -0.6300
     12 C12         0.1242    1.3678   46.0037 C.2     1  ZINC000439870054    0.5300
     13 O13        -0.4800    0.7045   45.1877 O.2     1  ZINC000439870054   -0.4900
     14 C14         1.2471    2.2693   45.5595 C.3     1  ZINC000439870054   -0.0700
     15 C15         1.3168    2.2804   44.0541 C.2     1  ZINC000439870054    0.0900
     16 C16         0.6553    3.1798   43.3201 C.2     1  ZINC000439870054   -0.2400
     17 S17         0.9918    2.8610   41.6198 S.3     1  ZINC000439870054    0.1300
     18 C18         2.0205    1.5074   42.0816 C.2     1  ZINC000439870054    0.1400
     19 C19         2.7495    0.6324   41.1505 C.2     1  ZINC000439870054   -0.1300
     20 C20         3.5317   -0.4089   41.5091 C.2     1  ZINC000439870054   -0.1000
     21 C21         4.1118   -1.0823   40.4559 C.2     1  ZINC000439870054   -0.1200
     22 C22         3.8122   -0.6032   39.2425 C.2     1  ZINC000439870054   -0.1500
     23 Cl23        4.3973   -1.2496   37.7413 Cl      1  ZINC000439870054    0.0000
     24 S24         2.7314    0.7752   39.3975 S.3     1  ZINC000439870054    0.2500
     25 N25         2.0361    1.4095   43.3828 N.2     1  ZINC000439870054   -0.4400
     26 C26         0.5095    2.0943   48.3150 C.3     1  ZINC000439870054    0.0900
     27 C27        -0.4621    3.0900   48.9594 C.3     1  ZINC000439870054    0.0900
     28 N28        -1.7090    2.4015   49.2897 N.pl3   1  ZINC000439870054   -0.4700
     29 H29        -2.7824    6.1609   50.6793 H       1  ZINC000439870054    0.0700
     30 H30        -1.9079    5.2712   49.4096 H       1  ZINC000439870054    0.0500
     31 H31        -3.6852    5.2038   49.4806 H       1  ZINC000439870054    0.0700
     32 H32        -1.7762    4.0819   51.5814 H       1  ZINC000439870054    0.0800
     33 H33        -3.8433    3.1360   52.5720 H       1  ZINC000439870054    0.0500
     34 H34        -3.9125    4.9140   52.5261 H       1  ZINC000439870054    0.0700
     35 H35        -4.8153    3.9569   51.3273 H       1  ZINC000439870054    0.0700
     36 H36        -2.4597    0.9211   46.0168 H       1  ZINC000439870054    0.0600
     37 H37        -1.6458   -0.6598   45.9350 H       1  ZINC000439870054    0.0900
     38 H38        -3.0939   -0.4558   46.9497 H       1  ZINC000439870054    0.0700
     39 H39         1.0660    3.2811   45.9222 H       1  ZINC000439870054    0.1100
     40 H40         2.1900    1.9015   45.9642 H       1  ZINC000439870054    0.1200
     41 H41         0.0226    3.9669   43.7032 H       1  ZINC000439870054    0.1800
     42 H42         3.6904   -0.6909   42.5394 H       1  ZINC000439870054    0.1500
     43 H43         4.7606   -1.9338   40.5991 H       1  ZINC000439870054    0.1600
     44 H44         0.9138    1.4325   49.0809 H       1  ZINC000439870054    0.0900
     45 H45         1.3238    2.6381   47.8361 H       1  ZINC000439870054    0.1200
     46 H46        -0.0169    3.4978   49.8670 H       1  ZINC000439870054    0.1100
     47 H47        -0.6714    3.8995   48.2600 H       1  ZINC000439870054    0.0900
@<TRIPOS>BOND
     1     1     2    1
     2     1    29    1
     3     1    30    1
     4     1    31    1
     5     2     3    1
     6     2     4    1
     7     2    32    1
     8     3    33    1
     9     3    34    1
    10     3    35    1
    11     4    28    1
    12     4     5    2
    13     5     6    1
    14     6     7    2
    15     7    28    1
    16     7     8    1
    17     8     9    1
    18     8    10    1
    19     8    11    1
    20    10    36    1
    21    10    37    1
    22    10    38    1
    23    11    12   am
    24    11    26    1
    25    12    13    2
    26    12    14    1
    27    14    15    1
    28    14    39    1
    29    14    40    1
    30    15    25    1
    31    15    16    2
    32    16    17    1
    33    16    41    1
    34    17    18    1
    35    18    19    1
    36    18    25    2
    37    19    24    1
    38    19    20    2
    39    20    21    1
    40    20    42    1
    41    21    22    2
    42    21    43    1
    43    22    23    1
    44    22    24    1
    45    26    27    1
    46    26    44    1
    47    26    45    1
    48    27    28    1
    49    27    46    1
    50    27    47    1
@<TRIPOS>SUBSTRUCTURE
     1 ZINC000439870054        1 TEMP              0 ****  ****    0 ROOT


##########                                Name:    ZINC000007167963
##########                DOCK_Rotatable_Bonds:                   8
##########                         Heavy_Atoms:                  25
##########                    Molecular_Weight:             378.433
##########                DOCK_Rotatable_Bonds:                   8
##########                       Formal_Charge:        -1.01328e-06
##########                     HBond_Acceptors:                  10
##########                        HBond_Donors:                   3
##########                         Heavy_Atoms:                  25
##########                          Grid_Score:          -29.292904
##########                     Grid_vdw_energy:          -27.641758
##########                      Grid_es_energy:           -1.651146
##########           Internal_energy_repulsive:            5.492659

@<TRIPOS>MOLECULE
ZINC000007167963
 39 41 1 0 0
SMALL
USER_CHARGES


@<TRIPOS>ATOM
      1 C1         -2.9335    4.3788   50.3253 C.3     1  ZINC000007167963   -0.0800
      2 C2         -2.5635    4.0358   51.7453 C.2     1  ZINC000007167963    0.0900
      3 C3         -1.2982    3.8924   52.2256 C.2     1  ZINC000007167963   -0.1500
      4 C4         -0.0354    4.0397   51.4720 C.2     1  ZINC000007167963    0.2600
      5 N5          1.1687    4.1215   51.9834 N.2     1  ZINC000007167963   -0.2700
      6 N6          2.0293    4.2417   51.0347 N.2     1  ZINC000007167963   -0.2800
      7 C7          1.4088    4.2416   49.8792 C.2     1  ZINC000007167963    0.1200
      8 S8          2.1607    4.3815   48.2919 S.3     1  ZINC000007167963    0.1500
      9 C9          0.7086    4.1555   47.2353 C.3     1  ZINC000007167963   -0.1200
     10 H10        -0.1045    4.7858   47.5954 H       1  ZINC000007167963    0.1400
     11 C11         1.0581    4.5459   45.7978 C.3     1  ZINC000007167963   -0.1500
     12 C12         0.2794    2.7114   47.2734 C.2     1  ZINC000007167963    0.5300
     13 O13         1.1094    1.8351   47.3925 O.2     1  ZINC000007167963   -0.4900
     14 N14        -1.0267    2.3937   47.1750 N.am    1  ZINC000007167963   -0.6100
     15 C15        -1.4217    1.0651   47.2118 C.2     1  ZINC000007167963    0.0800
     16 C16        -1.6424    0.2867   46.1052 C.2     1  ZINC000007167963   -0.2400
     17 C17        -1.4860    0.7692   44.7295 C.2     1  ZINC000007167963    0.5900
     18 N18        -0.2656    0.7919   44.1579 N.am    1  ZINC000007167963   -0.8400
     19 O19        -2.4582    1.1493   44.1037 O.2     1  ZINC000007167963   -0.5600
     20 C20        -2.0451   -1.0618   46.4394 C.2     1  ZINC000007167963   -0.0900
     21 C21        -2.1202   -1.2748   47.7455 C.2     1  ZINC000007167963   -0.2800
     22 S22        -1.6923    0.1735   48.6389 S.3     1  ZINC000007167963    0.3000
     23 O23         0.0912    4.1089   50.1284 O.3     1  ZINC000007167963   -0.2000
     24 C24        -1.4482    3.5618   53.6488 C.2     1  ZINC000007167963   -0.1800
     25 C25        -2.7698    3.5379   53.8864 C.2     1  ZINC000007167963   -0.0300
     26 O26        -3.4245    3.8259   52.7513 O.3     1  ZINC000007167963   -0.1700
     27 H27        -4.0186    4.4312   50.2351 H       1  ZINC000007167963    0.0800
     28 H28        -2.4999    5.3428   50.0594 H       1  ZINC000007167963    0.1000
     29 H29        -2.5500    3.6103   49.6541 H       1  ZINC000007167963    0.1000
     30 H30         1.3685    5.5904   45.7702 H       1  ZINC000007167963    0.0900
     31 H31         1.8711    3.9156   45.4376 H       1  ZINC000007167963    0.0800
     32 H32         0.1836    4.4099   45.1616 H       1  ZINC000007167963    0.0800
     33 H33        -1.6903    3.0946   47.0785 H       1  ZINC000007167963    0.4400
     34 H34        -0.1622    1.1123   43.2482 H       1  ZINC000007167963    0.4000
     35 H35         0.5091    0.4880   44.6561 H       1  ZINC000007167963    0.4100
     36 H36        -2.2631   -1.8179   45.6999 H       1  ZINC000007167963    0.1500
     37 H37        -2.4026   -2.2137   48.1984 H       1  ZINC000007167963    0.1700
     38 H38        -0.6567    3.3751   54.3595 H       1  ZINC000007167963    0.1600
     39 H39        -3.2313    3.3252   54.8394 H       1  ZINC000007167963    0.2200
@<TRIPOS>BOND
     1     1     2    1
     2     1    27    1
     3     1    28    1
     4     1    29    1
     5     2    26    1
     6     2     3    2
     7     3     4    1
     8     3    24    1
     9     4    23    1
    10     4     5    2
    11     5     6    1
    12     6     7    2
    13     7     8    1
    14     7    23    1
    15     8     9    1
    16     9    10    1
    17     9    11    1
    18     9    12    1
    19    11    30    1
    20    11    31    1
    21    11    32    1
    22    12    13    2
    23    12    14   am
    24    14    15    1
    25    14    33    1
    26    15    22    1
    27    15    16    2
    28    16    17    1
    29    16    20    1
    30    17    18   am
    31    17    19    2
    32    18    34    1
    33    18    35    1
    34    20    21    2
    35    20    36    1
    36    21    22    1
    37    21    37    1
    38    24    25    2
    39    24    38    1
    40    25    26    1
    41    25    39    1
@<TRIPOS>SUBSTRUCTURE
     1 ZINC000007167963        1 TEMP              0 ****  ****    0 ROOT


##########                                Name:    ZINC000538774026
##########                DOCK_Rotatable_Bonds:                  10
##########                         Heavy_Atoms:                  29
##########                    Molecular_Weight:             414.496
##########                DOCK_Rotatable_Bonds:                  10
##########                       Formal_Charge:            0.049999
##########                     HBond_Acceptors:                   9
##########                        HBond_Donors:                   2
##########                         Heavy_Atoms:                  29
##########                          Grid_Score:          -29.290646
##########                     Grid_vdw_energy:          -28.634222
##########                      Grid_es_energy:           -0.656424
##########           Internal_energy_repulsive:           26.650591

@<TRIPOS>MOLECULE
ZINC000538774026
 61 62 1 0 0
SMALL
USER_CHARGES


@<TRIPOS>ATOM
      1 C1         -4.3438    6.7655   55.5842 C.3     1  ZINC000538774026   -0.1500
      2 C2         -4.7778    5.4678   56.2690 C.3     1  ZINC000538774026   -0.1100
      3 C3         -5.7043    5.7952   57.4416 C.3     1  ZINC000538774026   -0.1400
      4 C4         -5.5196    4.5844   55.2639 C.3     1  ZINC000538774026    0.1400
      5 N5         -5.9404    3.3445   55.9210 N.pl3   1  ZINC000538774026   -0.3400
      6 N6         -5.1011    2.2955   56.3171 N.2     1  ZINC000538774026   -0.2500
      7 C7         -5.8369    1.3641   56.8677 C.2     1  ZINC000538774026    0.0500
      8 C8         -7.1741    1.7859   56.8426 C.2     1  ZINC000538774026    0.0800
      9 N9         -8.2795    1.0686   57.3399 N.am    1  ZINC000538774026   -0.6600
     10 C10        -8.3376    0.7402   58.6457 C.2     1  ZINC000538774026    0.7100
     11 O11        -7.4350    1.0621   59.3943 O.2     1  ZINC000538774026   -0.5700
     12 N12        -9.3961    0.0552   59.1219 N.am    1  ZINC000538774026   -0.7300
     13 C13        -9.4584   -0.3032   60.5410 C.3     1  ZINC000538774026    0.1600
     14 C14       -10.6438    0.4093   61.1954 C.3     1  ZINC000538774026   -0.1300
     15 C15       -11.9403   -0.0177   60.5042 C.3     1  ZINC000538774026   -0.1000
     16 C16       -12.1164   -1.5314   60.6406 C.3     1  ZINC000538774026   -0.0800
     17 C17       -13.3935   -1.9519   59.9598 C.2     1  ZINC000538774026    0.4700
     18 O18       -14.1357   -2.7374   60.5000 O.2     1  ZINC000538774026   -0.5000
     19 O19       -13.7063   -1.4536   58.7533 O.3     1  ZINC000538774026   -0.3500
     20 C20       -14.0029   -2.4101   57.7018 C.3     1  ZINC000538774026    0.1200
     21 C21       -13.1613   -3.6712   57.9074 C.3     1  ZINC000538774026   -0.1800
     22 C22       -15.4880   -2.7748   57.7482 C.3     1  ZINC000538774026   -0.1400
     23 C23       -13.6717   -1.7920   56.3420 C.3     1  ZINC000538774026   -0.1800
     24 C24       -10.9311   -2.2438   59.9863 C.3     1  ZINC000538774026   -0.1100
     25 C25        -9.6346   -1.8169   60.6775 C.3     1  ZINC000538774026   -0.1300
     26 C26        -7.2131    3.0110   56.2594 C.2     1  ZINC000538774026   -0.0500
     27 C27        -8.4454    3.8454   56.0223 C.3     1  ZINC000538774026    0.3500
     28 F28        -9.2347    3.2421   55.0373 F       1  ZINC000538774026   -0.1900
     29 F29        -9.1773    3.9444   57.2105 F       1  ZINC000538774026   -0.1900
     30 H30        -3.8153    7.3950   56.3002 H       1  ZINC000538774026    0.0600
     31 H31        -3.6837    6.5323   54.7488 H       1  ZINC000538774026    0.0600
     32 H32        -5.2233    7.2937   55.2159 H       1  ZINC000538774026    0.0600
     33 H33        -3.8983    4.9397   56.6372 H       1  ZINC000538774026    0.0800
     34 H34        -6.5838    6.3234   57.0733 H       1  ZINC000538774026    0.0600
     35 H35        -6.0136    4.8707   57.9294 H       1  ZINC000538774026    0.0600
     36 H36        -5.1758    6.4246   58.1576 H       1  ZINC000538774026    0.0600
     37 H37        -6.3966    5.1145   54.8924 H       1  ZINC000538774026    0.1000
     38 H38        -4.8582    4.3476   54.4306 H       1  ZINC000538774026    0.1000
     39 H39        -5.4762    0.4299   57.2720 H       1  ZINC000538774026    0.2100
     40 H40        -8.9989    0.8108   56.7425 H       1  ZINC000538774026    0.4100
     41 H41       -10.1167   -0.2005   58.5250 H       1  ZINC000538774026    0.4000
     42 H42        -8.5349    0.0009   61.0334 H       1  ZINC000538774026    0.1000
     43 H43       -10.6901    0.1426   62.2512 H       1  ZINC000538774026    0.0800
     44 H44       -10.5183    1.4876   61.0982 H       1  ZINC000538774026    0.0800
     45 H45       -12.7847    0.4899   60.9704 H       1  ZINC000538774026    0.0700
     46 H46       -11.8939    0.2490   59.4483 H       1  ZINC000538774026    0.0700
     47 H47       -12.1628   -1.7980   61.6965 H       1  ZINC000538774026    0.1100
     48 H48       -13.3972   -4.1115   58.8762 H       1  ZINC000538774026    0.0600
     49 H49       -13.3839   -4.3892   57.1180 H       1  ZINC000538774026    0.0700
     50 H50       -12.1033   -3.4114   57.8743 H       1  ZINC000538774026    0.0800
     51 H51       -16.0876   -1.8764   57.6019 H       1  ZINC000538774026    0.0700
     52 H52       -15.7106   -3.4928   56.9590 H       1  ZINC000538774026    0.0800
     53 H53       -15.7240   -3.2151   58.7171 H       1  ZINC000538774026    0.0700
     54 H54       -12.6137   -1.5321   56.3089 H       1  ZINC000538774026    0.0800
     55 H55       -13.8944   -2.5099   55.5526 H       1  ZINC000538774026    0.0700
     56 H56       -14.2713   -0.8935   56.1955 H       1  ZINC000538774026    0.0600
     57 H57       -11.0566   -3.3222   60.0834 H       1  ZINC000538774026    0.0800
     58 H58       -10.8847   -1.9771   58.9304 H       1  ZINC000538774026    0.0600
     59 H59        -8.7902   -2.3245   60.2112 H       1  ZINC000538774026    0.0800
     60 H60        -9.6810   -2.0835   61.7333 H       1  ZINC000538774026    0.0900
     61 H61        -8.1515    4.8419   55.6925 H       1  ZINC000538774026    0.1300
@<TRIPOS>BOND
     1     1     2    1
     2     1    30    1
     3     1    31    1
     4     1    32    1
     5     2     3    1
     6     2     4    1
     7     2    33    1
     8     3    34    1
     9     3    35    1
    10     3    36    1
    11     4     5    1
    12     4    37    1
    13     4    38    1
    14     5    26    1
    15     5     6    1
    16     6     7    2
    17     7     8    1
    18     7    39    1
    19     8     9    1
    20     8    26    2
    21     9    10   am
    22     9    40    1
    23    10    11    2
    24    10    12   am
    25    12    13    1
    26    12    41    1
    27    13    25    1
    28    13    14    1
    29    13    42    1
    30    14    15    1
    31    14    43    1
    32    14    44    1
    33    15    16    1
    34    15    45    1
    35    15    46    1
    36    16    17    1
    37    16    24    1
    38    16    47    1
    39    17    18    2
    40    17    19    1
    41    19    20    1
    42    20    21    1
    43    20    22    1
    44    20    23    1
    45    21    48    1
    46    21    49    1
    47    21    50    1
    48    22    51    1
    49    22    52    1
    50    22    53    1
    51    23    54    1
    52    23    55    1
    53    23    56    1
    54    24    25    1
    55    24    57    1
    56    24    58    1
    57    25    59    1
    58    25    60    1
    59    26    27    1
    60    27    28    1
    61    27    29    1
    62    27    61    1
@<TRIPOS>SUBSTRUCTURE
     1 ZINC000538774026        1 TEMP              0 ****  ****    0 ROOT


##########                                Name:    ZINC001490207225
##########                DOCK_Rotatable_Bonds:                   7
##########                         Heavy_Atoms:                  24
##########                    Molecular_Weight:             334.378
##########                DOCK_Rotatable_Bonds:                   7
##########                       Formal_Charge:           -0.010001
##########                     HBond_Acceptors:                   9
##########                        HBond_Donors:                   3
##########                         Heavy_Atoms:                  24
##########                          Grid_Score:          -29.290501
##########                     Grid_vdw_energy:          -27.954943
##########                      Grid_es_energy:           -1.335558
##########           Internal_energy_repulsive:            5.855094

@<TRIPOS>MOLECULE
ZINC001490207225
 46 48 1 0 0
SMALL
USER_CHARGES


@<TRIPOS>ATOM
      1 C1         -7.6519    3.2317   53.5843 C.3     1  ZINC001490207225    0.0900
      2 N2         -8.6492    2.3043   53.0444 N.pl3   1  ZINC001490207225   -0.3600
      3 C3         -8.8034    1.0205   53.4056 C.2     1  ZINC001490207225    0.1300
      4 C4         -9.8473    0.5049   52.6639 C.2     1  ZINC001490207225   -0.3000
      5 C5        -10.3706   -0.8719   52.7286 C.2     1  ZINC001490207225    0.6200
      6 O6        -10.3368   -1.5821   51.7421 O.2     1  ZINC001490207225   -0.5400
      7 N7        -10.8866   -1.3432   53.8810 N.am    1  ZINC001490207225   -0.6200
      8 C8        -11.4404   -2.6873   54.1121 C.3     1  ZINC001490207225    0.1100
      9 C9        -12.5457   -2.5258   55.1688 C.3     1  ZINC001490207225   -0.1100
     10 H10       -13.5421   -2.5640   54.7283 H       1  ZINC001490207225    0.1000
     11 C11       -12.3551   -3.5946   56.2655 C.3     1  ZINC001490207225    0.1000
     12 N12       -12.5631   -2.8678   57.5392 N.am    1  ZINC001490207225   -0.6200
     13 C13       -13.2094   -3.2982   58.6407 C.2     1  ZINC001490207225    0.5300
     14 O14       -13.7039   -4.4055   58.6599 O.2     1  ZINC001490207225   -0.5300
     15 C15       -13.3177   -2.4037   59.8486 C.3     1  ZINC001490207225    0.1200
     16 N16       -11.9893   -2.2147   60.4370 N.am    1  ZINC001490207225   -0.7400
     17 C17       -11.8680   -1.6899   61.6725 C.2     1  ZINC001490207225    0.7100
     18 N18       -10.6461   -1.5175   62.2144 N.am    1  ZINC001490207225   -0.8600
     19 O19       -12.8609   -1.3720   62.2981 O.2     1  ZINC001490207225   -0.5900
     20 C20       -11.8995   -1.5607   57.3274 C.3     1  ZINC001490207225    0.1100
     21 C21       -12.2600   -1.1641   55.8537 C.3     1  ZINC001490207225   -0.0800
     22 C22       -13.4411   -0.1935   55.7919 C.3     1  ZINC001490207225   -0.1300
     23 C23       -11.0005   -0.6166   55.1561 C.3     1  ZINC001490207225    0.1000
     24 C24       -10.3204    1.5438   51.8314 C.2     1  ZINC001490207225    0.0700
     25 N25        -9.6058    2.6089   52.0694 N.2     1  ZINC001490207225   -0.2900
     26 H26        -8.0647    3.7435   54.4535 H       1  ZINC001490207225    0.0800
     27 H27        -6.7613    2.6764   53.8787 H       1  ZINC001490207225    0.0900
     28 H28        -7.3876    3.9649   52.8223 H       1  ZINC001490207225    0.1000
     29 H29        -8.2181    0.4886   54.1413 H       1  ZINC001490207225    0.1900
     30 H30       -11.8616   -3.0824   53.1877 H       1  ZINC001490207225    0.0900
     31 H31       -10.6621   -3.3537   54.4839 H       1  ZINC001490207225    0.0800
     32 H32       -13.0948   -4.3876   56.1556 H       1  ZINC001490207225    0.0900
     33 H33       -11.3467   -4.0062   56.2235 H       1  ZINC001490207225    0.0900
     34 H34       -13.7236   -1.4372   59.5499 H       1  ZINC001490207225    0.1000
     35 H35       -13.9784   -2.8639   60.5835 H       1  ZINC001490207225    0.1000
     36 H36       -11.1972   -2.4673   59.9374 H       1  ZINC001490207225    0.4100
     37 H37       -10.5589   -1.1408   63.1040 H       1  ZINC001490207225    0.4000
     38 H38        -9.8540   -1.7700   61.7148 H       1  ZINC001490207225    0.4200
     39 H39       -12.2950   -0.8175   58.0197 H       1  ZINC001490207225    0.0900
     40 H40       -10.8207   -1.6583   57.4493 H       1  ZINC001490207225    0.0800
     41 H41       -13.1855    0.7239   56.3220 H       1  ZINC001490207225    0.0700
     42 H42       -13.6663    0.0389   54.7511 H       1  ZINC001490207225    0.0600
     43 H43       -14.3129   -0.6520   56.2586 H       1  ZINC001490207225    0.0600
     44 H44       -10.1187   -0.8177   55.7644 H       1  ZINC001490207225    0.0800
     45 H45       -11.1024    0.4555   54.9875 H       1  ZINC001490207225    0.0900
     46 H46       -11.1339    1.4702   51.1249 H       1  ZINC001490207225    0.2000
@<TRIPOS>BOND
     1     1     2    1
     2     1    26    1
     3     1    27    1
     4     1    28    1
     5     2    25    1
     6     2     3    1
     7     3     4    2
     8     3    29    1
     9     4     5    1
    10     4    24    1
    11     5     6    2
    12     5     7   am
    13     7    23    1
    14     7     8    1
    15     8     9    1
    16     8    30    1
    17     8    31    1
    18     9    10    1
    19     9    21    1
    20     9    11    1
    21    11    12    1
    22    11    32    1
    23    11    33    1
    24    12    13   am
    25    12    20    1
    26    13    14    2
    27    13    15    1
    28    15    16    1
    29    15    34    1
    30    15    35    1
    31    16    17   am
    32    16    36    1
    33    17    18   am
    34    17    19    2
    35    18    37    1
    36    18    38    1
    37    20    21    1
    38    20    39    1
    39    20    40    1
    40    21    22    1
    41    21    23    1
    42    22    41    1
    43    22    42    1
    44    22    43    1
    45    23    44    1
    46    23    45    1
    47    24    25    2
    48    24    46    1
@<TRIPOS>SUBSTRUCTURE
     1 ZINC001490207225        1 TEMP              0 ****  ****    0 ROOT


##########                                Name:    ZINC000467104849
##########                DOCK_Rotatable_Bonds:                   6
##########                         Heavy_Atoms:                  29
##########                    Molecular_Weight:             421.896
##########                DOCK_Rotatable_Bonds:                   6
##########                       Formal_Charge:           0.0200002
##########                     HBond_Acceptors:                   7
##########                        HBond_Donors:                   0
##########                         Heavy_Atoms:                  29
##########                          Grid_Score:          -29.288624
##########                     Grid_vdw_energy:          -28.173063
##########                      Grid_es_energy:           -1.115561
##########           Internal_energy_repulsive:           69.251701

@<TRIPOS>MOLECULE
ZINC000467104849
 54 56 1 0 0
SMALL
USER_CHARGES


@<TRIPOS>ATOM
      1 C1         -3.6885    3.3571   51.0206 C.3     1  ZINC000467104849    0.0200
      2 O2         -3.3907    4.5015   50.2181 O.3     1  ZINC000467104849   -0.3000
      3 C3         -2.0992    4.6588   49.8222 C.ar    1  ZINC000467104849    0.1000
      4 C4         -1.1423    3.7269   50.1892 C.ar    1  ZINC000467104849   -0.1700
      5 C5          0.1704    3.8881   49.7854 C.ar    1  ZINC000467104849   -0.1200
      6 C6          0.5311    4.9781   49.0161 C.ar    1  ZINC000467104849   -0.0800
      7 C7          1.9632    5.1493   48.5792 C.3     1  ZINC000467104849   -0.0400
      8 C8          2.6412    6.2044   49.4556 C.3     1  ZINC000467104849   -0.1300
      9 C9          2.7023    3.8172   48.7208 C.3     1  ZINC000467104849   -0.1600
     10 C10         1.9995    5.5934   47.1396 C.2     1  ZINC000467104849    0.5300
     11 O11         2.6805    6.5430   46.8148 O.2     1  ZINC000467104849   -0.5300
     12 N12         1.2752    4.9352   46.2129 N.am    1  ZINC000467104849   -0.6100
     13 C13         1.2947    5.3503   44.8013 C.3     1  ZINC000467104849    0.0600
     14 C14         1.5824    4.1164   43.9384 C.3     1  ZINC000467104849    0.0500
     15 O15         0.6629    3.0770   44.2819 O.3     1  ZINC000467104849   -0.3700
     16 C16         0.7714    2.6226   45.6331 C.3     1  ZINC000467104849    0.1300
     17 H17         1.7878    2.2761   45.8202 H       1  ZINC000467104849    0.0800
     18 C18        -0.1967    1.4907   45.8627 C.ar    1  ZINC000467104849   -0.0900
     19 C19        -1.3191    1.3696   45.0653 C.ar    1  ZINC000467104849   -0.0500
     20 C20        -2.2083    0.3320   45.2745 C.ar    1  ZINC000467104849   -0.1400
     21 C21        -1.9744   -0.5867   46.2829 C.ar    1  ZINC000467104849    0.1200
     22 F22        -2.8425   -1.6013   46.4878 F       1  ZINC000467104849   -0.1200
     23 C23        -0.8485   -0.4650   47.0819 C.ar    1  ZINC000467104849   -0.0800
     24 Cl24       -0.5529   -1.6160   48.3474 Cl      1  ZINC000467104849   -0.0400
     25 C25         0.0417    0.5712   46.8672 C.ar    1  ZINC000467104849   -0.0700
     26 C26         0.4465    3.7766   46.5817 C.3     1  ZINC000467104849    0.0900
     27 C27        -0.4193    5.9119   48.6458 C.ar    1  ZINC000467104849   -0.1600
     28 C28        -1.7372    5.7536   49.0425 C.ar    1  ZINC000467104849    0.1100
     29 O29        -2.6731    6.6709   48.6793 O.3     1  ZINC000467104849   -0.3000
     30 C30        -2.2323    7.7608   47.8668 C.3     1  ZINC000467104849    0.0200
     31 H31        -4.7504    3.3521   51.2663 H       1  ZINC000467104849    0.1000
     32 H32        -3.4390    2.4511   50.4683 H       1  ZINC000467104849    0.0600
     33 H33        -3.1031    3.3953   51.9392 H       1  ZINC000467104849    0.0600
     34 H34        -1.4213    2.8747   50.7910 H       1  ZINC000467104849    0.1400
     35 H35         0.9156    3.1609   50.0722 H       1  ZINC000467104849    0.1300
     36 H36         2.6939    5.8440   50.4830 H       1  ZINC000467104849    0.0700
     37 H37         3.6486    6.3924   49.0843 H       1  ZINC000467104849    0.0700
     38 H38         2.0640    7.1285   49.4239 H       1  ZINC000467104849    0.0700
     39 H39         2.2755    3.0896   48.0305 H       1  ZINC000467104849    0.0700
     40 H40         3.7579    3.9610   48.4902 H       1  ZINC000467104849    0.0700
     41 H41         2.6002    3.4519   49.7427 H       1  ZINC000467104849    0.0700
     42 H42         0.3267    5.7710   44.5289 H       1  ZINC000467104849    0.0800
     43 H43         2.0755    6.0954   44.6484 H       1  ZINC000467104849    0.1100
     44 H44         1.4651    4.3730   42.8856 H       1  ZINC000467104849    0.1100
     45 H45         2.6017    3.7752   44.1194 H       1  ZINC000467104849    0.0600
     46 H46        -1.5018    2.0864   44.2783 H       1  ZINC000467104849    0.1500
     47 H47        -3.0854    0.2384   44.6514 H       1  ZINC000467104849    0.1500
     48 H48         0.9194    0.6664   47.4892 H       1  ZINC000467104849    0.1500
     49 H49         0.6632    3.4802   47.6081 H       1  ZINC000467104849    0.1100
     50 H50        -0.6068    4.0416   46.4903 H       1  ZINC000467104849    0.0800
     51 H51        -0.1349    6.7627   48.0445 H       1  ZINC000467104849    0.1400
     52 H52        -1.4629    8.3216   48.3976 H       1  ZINC000467104849    0.0600
     53 H53        -1.8221    7.3753   46.9333 H       1  ZINC000467104849    0.0600
     54 H54        -3.0755    8.4165   47.6499 H       1  ZINC000467104849    0.1000
@<TRIPOS>BOND
     1     1     2    1
     2     1    31    1
     3     1    32    1
     4     1    33    1
     5     2     3    1
     6     3    28   ar
     7     3     4   ar
     8     4     5   ar
     9     4    34    1
    10     5     6   ar
    11     5    35    1
    12     6     7    1
    13     6    27   ar
    14     7     8    1
    15     7     9    1
    16     7    10    1
    17     8    36    1
    18     8    37    1
    19     8    38    1
    20     9    39    1
    21     9    40    1
    22     9    41    1
    23    10    11    2
    24    10    12   am
    25    12    26    1
    26    12    13    1
    27    13    14    1
    28    13    42    1
    29    13    43    1
    30    14    15    1
    31    14    44    1
    32    14    45    1
    33    15    16    1
    34    16    17    1
    35    16    18    1
    36    16    26    1
    37    18    25   ar
    38    18    19   ar
    39    19    20   ar
    40    19    46    1
    41    20    21   ar
    42    20    47    1
    43    21    22    1
    44    21    23   ar
    45    23    24    1
    46    23    25   ar
    47    25    48    1
    48    26    49    1
    49    26    50    1
    50    27    28   ar
    51    27    51    1
    52    28    29    1
    53    29    30    1
    54    30    52    1
    55    30    53    1
    56    30    54    1
@<TRIPOS>SUBSTRUCTURE
     1 ZINC000467104849        1 TEMP              0 ****  ****    0 ROOT


##########                                Name:    ZINC000811540126
##########                DOCK_Rotatable_Bonds:                   7
##########                         Heavy_Atoms:                  21
##########                    Molecular_Weight:             397.212
##########                DOCK_Rotatable_Bonds:                   7
##########                       Formal_Charge:           0.0100001
##########                     HBond_Acceptors:                   4
##########                        HBond_Donors:                   3
##########                         Heavy_Atoms:                  21
##########                          Grid_Score:          -29.285336
##########                     Grid_vdw_energy:          -28.524059
##########                      Grid_es_energy:           -0.761277
##########           Internal_energy_repulsive:            8.770101

@<TRIPOS>MOLECULE
ZINC000811540126
 37 38 1 0 0
SMALL
USER_CHARGES


@<TRIPOS>ATOM
      1 C1         -8.3703    0.3648   60.1864 C.3     1  ZINC000811540126   -0.1600
      2 C2         -9.7097   -0.3354   60.4250 C.3     1  ZINC000811540126    0.1200
      3 H3        -10.4912    0.4121   60.5611 H       1  ZINC000811540126    0.1000
      4 N4        -10.0338   -1.1763   59.2700 N.am    1  ZINC000811540126   -0.7200
      5 C5        -11.2929   -1.2057   58.7901 C.2     1  ZINC000811540126    0.5700
      6 O6        -12.1600   -0.5356   59.3167 O.2     1  ZINC000811540126   -0.5100
      7 C7        -11.6189   -2.0511   57.6258 C.ar    1  ZINC000811540126   -0.1600
      8 C8        -11.0948   -1.7462   56.3676 C.ar    1  ZINC000811540126   -0.0400
      9 C9        -11.4035   -2.5403   55.2836 C.ar    1  ZINC000811540126   -0.1200
     10 I10       -10.6166   -2.0815   53.3969 I       1  ZINC000811540126   -0.0300
     11 C11       -12.2314   -3.6406   55.4366 C.ar    1  ZINC000811540126   -0.0400
     12 C12       -12.7565   -3.9528   56.6751 C.ar    1  ZINC000811540126   -0.1500
     13 C13       -12.4519   -3.1684   57.7771 C.ar    1  ZINC000811540126    0.1900
     14 O14       -12.9666   -3.4743   58.9944 O.3     1  ZINC000811540126   -0.4700
     15 C15        -9.6133   -1.2066   61.6790 C.3     1  ZINC000811540126    0.1400
     16 H16        -8.8808   -1.9973   61.5168 H       1  ZINC000811540126    0.1300
     17 O17       -10.8891   -1.7883   61.9543 O.3     1  ZINC000811540126   -0.5400
     18 C18        -9.1853   -0.3580   62.8486 C.ar    1  ZINC000811540126   -0.1200
     19 C19       -10.1074    0.4439   63.4947 C.ar    1  ZINC000811540126   -0.1100
     20 C20        -9.7149    1.2224   64.5676 C.ar    1  ZINC000811540126   -0.1100
     21 C21        -8.4003    1.1986   64.9944 C.ar    1  ZINC000811540126   -0.1200
     22 C22        -7.4784    0.3961   64.3487 C.ar    1  ZINC000811540126   -0.1100
     23 C23        -7.8719   -0.3856   63.2787 C.ar    1  ZINC000811540126   -0.1100
     24 H24        -8.4389    0.9855   59.2930 H       1  ZINC000811540126    0.0600
     25 H25        -8.1292    0.9903   61.0458 H       1  ZINC000811540126    0.0700
     26 H26        -7.5887   -0.3827   60.0504 H       1  ZINC000811540126    0.0700
     27 H27        -9.3422   -1.7117   58.8505 H       1  ZINC000811540126    0.3900
     28 H28       -10.4491   -0.8893   56.2439 H       1  ZINC000811540126    0.1300
     29 H29       -12.4678   -4.2576   54.5823 H       1  ZINC000811540126    0.1400
     30 H30       -13.4014   -4.8120   56.7864 H       1  ZINC000811540126    0.1500
     31 H31       -12.7348   -4.3590   59.3085 H       1  ZINC000811540126    0.4000
     32 H32       -10.8736   -2.4592   62.6505 H       1  ZINC000811540126    0.3700
     33 H33       -11.1345    0.4624   63.1613 H       1  ZINC000811540126    0.1100
     34 H34       -10.4353    1.8494   65.0720 H       1  ZINC000811540126    0.1200
     35 H35        -8.0935    1.8073   65.8320 H       1  ZINC000811540126    0.1200
     36 H36        -6.4512    0.3778   64.6820 H       1  ZINC000811540126    0.1300
     37 H37        -7.1516   -1.0126   62.7743 H       1  ZINC000811540126    0.1200
@<TRIPOS>BOND
     1     1     2    1
     2     1    24    1
     3     1    25    1
     4     1    26    1
     5     2     3    1
     6     2     4    1
     7     2    15    1
     8     4     5   am
     9     4    27    1
    10     5     6    2
    11     5     7    1
    12     7    13   ar
    13     7     8   ar
    14     8     9   ar
    15     8    28    1
    16     9    10    1
    17     9    11   ar
    18    11    12   ar
    19    11    29    1
    20    12    13   ar
    21    12    30    1
    22    13    14    1
    23    14    31    1
    24    15    16    1
    25    15    17    1
    26    15    18    1
    27    17    32    1
    28    18    23   ar
    29    18    19   ar
    30    19    20   ar
    31    19    33    1
    32    20    21   ar
    33    20    34    1
    34    21    22   ar
    35    21    35    1
    36    22    23   ar
    37    22    36    1
    38    23    37    1
@<TRIPOS>SUBSTRUCTURE
     1 ZINC000811540126        1 TEMP              0 ****  ****    0 ROOT


##########                                Name:    ZINC001098311495
##########                DOCK_Rotatable_Bonds:                   8
##########                         Heavy_Atoms:                  24
##########                    Molecular_Weight:             328.454
##########                DOCK_Rotatable_Bonds:                   8
##########                       Formal_Charge:          0.00999987
##########                     HBond_Acceptors:                   4
##########                        HBond_Donors:                   1
##########                         Heavy_Atoms:                  24
##########                          Grid_Score:          -29.283089
##########                     Grid_vdw_energy:          -28.112211
##########                      Grid_es_energy:           -1.170877
##########           Internal_energy_repulsive:           26.480980

@<TRIPOS>MOLECULE
ZINC001098311495
 52 54 1 0 0
SMALL
USER_CHARGES


@<TRIPOS>ATOM
      1 C1         -5.3251    5.0450   51.9279 C.3     1  ZINC001098311495   -0.1500
      2 C2         -4.5792    4.4017   53.0986 C.3     1  ZINC001098311495    0.0500
      3 O3         -3.2177    4.1746   52.7288 O.3     1  ZINC001098311495   -0.2800
      4 C4         -2.4183    3.5864   53.6536 C.ar    1  ZINC001098311495    0.1900
      5 C5         -2.9533    3.1347   54.8505 C.ar    1  ZINC001098311495   -0.2200
      6 C6         -2.1370    2.5421   55.7938 C.ar    1  ZINC001098311495   -0.0500
      7 C7         -0.7822    2.3881   55.5504 C.ar    1  ZINC001098311495   -0.1700
      8 C8         -0.2347    2.8257   54.3636 C.ar    1  ZINC001098311495   -0.0500
      9 C9         -1.0486    3.4272   53.4011 C.ar    1  ZINC001098311495   -0.1800
     10 C10        -0.4691    3.8978   52.1285 C.2     1  ZINC001098311495    0.5600
     11 O11         0.4648    4.6764   52.1370 O.2     1  ZINC001098311495   -0.5200
     12 N12        -0.9750    3.4649   50.9568 N.am    1  ZINC001098311495   -0.7200
     13 C13        -0.3985    3.9309   49.6932 C.3     1  ZINC001098311495    0.1600
     14 H14         0.0986    4.8912   49.8306 H       1  ZINC001098311495    0.1000
     15 C15        -1.4902    4.0299   48.5997 C.3     1  ZINC001098311495   -0.1200
     16 C16        -1.0101    3.0210   47.5131 C.3     1  ZINC001098311495    0.0500
     17 H17        -1.7808    2.6611   46.8316 H       1  ZINC001098311495    0.1100
     18 C18         0.2282    3.6848   46.8386 C.3     1  ZINC001098311495   -0.1500
     19 C19         1.3286    3.5841   47.9231 C.3     1  ZINC001098311495   -0.1500
     20 C20         0.5954    2.8754   49.1213 C.3     1  ZINC001098311495    0.0400
     21 H21         1.2458    2.3858   49.8461 H       1  ZINC001098311495    0.1200
     22 N22        -0.3456    1.9727   48.3669 N.3     1  ZINC001098311495   -0.4900
     23 C23         0.3965    1.0124   47.5391 C.3     1  ZINC001098311495    0.0600
     24 C24         0.1282   -0.3868   48.0304 C.2     1  ZINC001098311495   -0.1600
     25 C25        -1.0601   -0.9174   47.8797 C.2     1  ZINC001098311495   -0.1200
     26 C26        -2.1587   -0.1285   47.2150 C.3     1  ZINC001098311495   -0.1200
     27 C27        -1.3283   -2.3166   48.3710 C.3     1  ZINC001098311495   -0.1200
     28 H28        -4.8541    5.9948   51.6749 H       1  ZINC001098311495    0.0700
     29 H29        -5.2891    4.3802   51.0648 H       1  ZINC001098311495    0.0700
     30 H30        -6.3636    5.2182   52.2099 H       1  ZINC001098311495    0.0800
     31 H31        -5.0502    3.4519   53.3516 H       1  ZINC001098311495    0.0600
     32 H32        -4.6152    5.0664   53.9617 H       1  ZINC001098311495    0.0600
     33 H33        -4.0088    3.2509   55.0474 H       1  ZINC001098311495    0.1300
     34 H34        -2.5575    2.1963   56.7264 H       1  ZINC001098311495    0.1300
     35 H35        -0.1520    1.9228   56.2939 H       1  ZINC001098311495    0.1300
     36 H36         0.8223    2.7038   54.1783 H       1  ZINC001098311495    0.1300
     37 H37        -1.7209    2.8447   50.9501 H       1  ZINC001098311495    0.4000
     38 H38        -1.5350    5.0400   48.1924 H       1  ZINC001098311495    0.0800
     39 H39        -2.4602    3.7323   48.9977 H       1  ZINC001098311495    0.0800
     40 H40         0.5193    3.1339   45.9442 H       1  ZINC001098311495    0.0700
     41 H41         0.0210    4.7275   46.5977 H       1  ZINC001098311495    0.0800
     42 H42         2.1651    2.9832   47.5663 H       1  ZINC001098311495    0.0700
     43 H43         1.6669    4.5768   48.2199 H       1  ZINC001098311495    0.0800
     44 H44         1.4638    1.2229   47.6070 H       1  ZINC001098311495    0.0500
     45 H45         0.0738    1.1014   46.5018 H       1  ZINC001098311495    0.0800
     46 H46         0.9156   -0.9522   48.5067 H       1  ZINC001098311495    0.1100
     47 H47        -2.7070    0.4368   47.9685 H       1  ZINC001098311495    0.0700
     48 H48        -2.8393   -0.8111   46.7062 H       1  ZINC001098311495    0.0600
     49 H49        -1.7243    0.5592   46.4895 H       1  ZINC001098311495    0.0600
     50 H50        -1.0258   -3.0338   47.6079 H       1  ZINC001098311495    0.0700
     51 H51        -0.7606   -2.4963   49.2839 H       1  ZINC001098311495    0.0600
     52 H52        -2.3926   -2.4318   48.5763 H       1  ZINC001098311495    0.0600
@<TRIPOS>BOND
     1     1     2    1
     2     1    28    1
     3     1    29    1
     4     1    30    1
     5     2     3    1
     6     2    31    1
     7     2    32    1
     8     3     4    1
     9     4     9   ar
    10     4     5   ar
    11     5     6   ar
    12     5    33    1
    13     6     7   ar
    14     6    34    1
    15     7     8   ar
    16     7    35    1
    17     8     9   ar
    18     8    36    1
    19     9    10    1
    20    10    11    2
    21    10    12   am
    22    12    13    1
    23    12    37    1
    24    13    14    1
    25    13    20    1
    26    13    15    1
    27    15    16    1
    28    15    38    1
    29    15    39    1
    30    16    17    1
    31    16    22    1
    32    16    18    1
    33    18    19    1
    34    18    40    1
    35    18    41    1
    36    19    20    1
    37    19    42    1
    38    19    43    1
    39    20    21    1
    40    20    22    1
    41    22    23    1
    42    23    24    1
    43    23    44    1
    44    23    45    1
    45    24    25    2
    46    24    46    1
    47    25    26    1
    48    25    27    1
    49    26    47    1
    50    26    48    1
    51    26    49    1
    52    27    50    1
    53    27    51    1
    54    27    52    1
@<TRIPOS>SUBSTRUCTURE
     1 ZINC001098311495        1 TEMP              0 ****  ****    0 ROOT


##########                                Name:    ZINC001139743874
##########                DOCK_Rotatable_Bonds:                   5
##########                         Heavy_Atoms:                  28
##########                    Molecular_Weight:             382.506
##########                DOCK_Rotatable_Bonds:                   5
##########                       Formal_Charge:           0.0199992
##########                     HBond_Acceptors:                   6
##########                        HBond_Donors:                   0
##########                         Heavy_Atoms:                  28
##########                          Grid_Score:          -29.277447
##########                     Grid_vdw_energy:          -28.397871
##########                      Grid_es_energy:           -0.879576
##########           Internal_energy_repulsive:           16.955048

@<TRIPOS>MOLECULE
ZINC001139743874
 58 61 1 0 0
SMALL
USER_CHARGES


@<TRIPOS>ATOM
      1 C1         -9.3237    1.5184   65.1310 C.3     1  ZINC001139743874   -0.1800
      2 C2         -8.8975    0.9174   63.7901 C.3     1  ZINC001139743874    0.1400
      3 C3         -9.2459    1.8899   62.6615 C.3     1  ZINC001139743874   -0.1800
      4 C4         -7.3881    0.6674   63.8001 C.3     1  ZINC001139743874   -0.1400
      5 O5         -9.5947   -0.3386   63.5791 O.3     1  ZINC001139743874   -0.3600
      6 C6        -10.8452   -0.2681   63.0851 C.2     1  ZINC001139743874    0.6500
      7 O7        -11.6658    0.4582   63.6102 O.2     1  ZINC001139743874   -0.5700
      8 N8        -11.1869   -1.0031   62.0084 N.am    1  ZINC001139743874   -0.5900
      9 C9        -10.2349   -1.8623   61.3788 C.3     1  ZINC001139743874    0.1000
     10 C10        -9.3268   -1.1940   60.3075 C.3     1  ZINC001139743874   -0.1300
     11 C11       -10.1757   -0.2026   59.4602 C.3     1  ZINC001139743874   -0.0900
     12 C12       -11.5448   -0.7343   59.1895 C.3     1  ZINC001139743874   -0.0800
     13 C13       -12.0297   -0.6240   57.7390 C.3     1  ZINC001139743874    0.0100
     14 N14       -11.5059   -1.9989   57.5705 N.3     1  ZINC001139743874   -0.4700
     15 C15       -12.4397   -2.8265   56.7952 C.3     1  ZINC001139743874    0.0600
     16 C16       -12.4764   -2.3407   55.3691 C.ar    1  ZINC001139743874   -0.1200
     17 C17       -11.2915   -2.2073   54.6478 C.ar    1  ZINC001139743874    0.1500
     18 N18       -11.2864   -1.7878   53.4056 N.ar    1  ZINC001139743874   -0.4600
     19 C19       -12.4200   -1.4698   52.7764 C.ar    1  ZINC001139743874    0.0800
     20 C20       -12.4112   -1.0196   51.4409 C.ar    1  ZINC001139743874   -0.0400
     21 C21       -13.6050   -0.7111   50.8556 C.ar    1  ZINC001139743874   -0.1600
     22 C22       -14.7902   -0.8443   51.5771 C.ar    1  ZINC001139743874    0.1300
     23 N23       -14.7954   -1.2633   52.8192 N.ar    1  ZINC001139743874   -0.4700
     24 C24       -13.6615   -1.5816   53.4485 C.ar    1  ZINC001139743874    0.0800
     25 C25       -13.6709   -2.0367   54.7819 C.ar    1  ZINC001139743874   -0.0400
     26 C26       -11.6496   -2.2547   59.0221 C.3     1  ZINC001139743874    0.0000
     27 C27       -12.5308   -0.1592   60.2110 C.3     1  ZINC001139743874   -0.1300
     28 C28       -12.5743   -0.9422   61.4492 C.3     1  ZINC001139743874    0.1400
     29 H29       -10.3991    1.6966   65.1239 H       1  ZINC001139743874    0.0900
     30 H30        -9.0755    0.8256   65.9350 H       1  ZINC001139743874    0.0600
     31 H31        -8.8003    2.4613   65.2894 H       1  ZINC001139743874    0.0700
     32 H32        -8.7224    2.8328   62.8198 H       1  ZINC001139743874    0.0700
     33 H33        -8.9421    1.4618   61.7062 H       1  ZINC001139743874    0.0600
     34 H34       -10.3212    2.0681   62.6544 H       1  ZINC001139743874    0.0900
     35 H35        -7.1399   -0.0255   64.6041 H       1  ZINC001139743874    0.0700
     36 H36        -7.0844    0.2392   62.8448 H       1  ZINC001139743874    0.0700
     37 H37        -6.8646    1.6103   63.9585 H       1  ZINC001139743874    0.0800
     38 H38        -9.5945   -2.2863   62.1523 H       1  ZINC001139743874    0.0700
     39 H39       -10.7759   -2.6811   60.9045 H       1  ZINC001139743874    0.0900
     40 H40        -8.5198   -0.6524   60.8011 H       1  ZINC001139743874    0.0700
     41 H41        -8.9065   -1.9612   59.6571 H       1  ZINC001139743874    0.0800
     42 H42       -10.2615    0.7412   59.9986 H       1  ZINC001139743874    0.0600
     43 H43        -9.6703   -0.0237   58.5112 H       1  ZINC001139743874    0.0700
     44 H44       -13.1128   -0.5509   57.6417 H       1  ZINC001139743874    0.0700
     45 H45       -11.4967    0.1247   57.1529 H       1  ZINC001139743874    0.0900
     46 H46       -12.1090   -3.8649   56.8169 H       1  ZINC001139743874    0.0600
     47 H47       -13.4367   -2.7535   57.2296 H       1  ZINC001139743874    0.0900
     48 H48       -10.3544   -2.4554   55.1238 H       1  ZINC001139743874    0.1700
     49 H49       -11.4844   -0.9210   50.8952 H       1  ZINC001139743874    0.1500
     50 H50       -13.6315   -0.3634   49.8334 H       1  ZINC001139743874    0.1500
     51 H51       -15.7274   -0.5959   51.1012 H       1  ZINC001139743874    0.1700
     52 H52       -14.5980   -2.1386   55.3263 H       1  ZINC001139743874    0.1400
     53 H53       -10.8142   -2.8036   59.4567 H       1  ZINC001139743874    0.1000
     54 H54       -12.6207   -2.6621   59.3029 H       1  ZINC001139743874    0.0700
     55 H55       -12.2366    0.8632   60.4483 H       1  ZINC001139743874    0.0700
     56 H56       -13.5273   -0.1440   59.7695 H       1  ZINC001139743874    0.0800
     57 H57       -12.9333   -1.9489   61.2348 H       1  ZINC001139743874    0.0800
     58 H58       -13.2390   -0.4597   62.1657 H       1  ZINC001139743874    0.1000
@<TRIPOS>BOND
     1     1     2    1
     2     1    29    1
     3     1    30    1
     4     1    31    1
     5     2     3    1
     6     2     4    1
     7     2     5    1
     8     3    32    1
     9     3    33    1
    10     3    34    1
    11     4    35    1
    12     4    36    1
    13     4    37    1
    14     5     6    1
    15     6     7    2
    16     6     8   am
    17     8    28    1
    18     8     9    1
    19     9    10    1
    20     9    38    1
    21     9    39    1
    22    10    11    1
    23    10    40    1
    24    10    41    1
    25    11    12    1
    26    11    42    1
    27    11    43    1
    28    12    26    1
    29    12    13    1
    30    12    27    1
    31    13    14    1
    32    13    44    1
    33    13    45    1
    34    14    15    1
    35    14    26    1
    36    15    16    1
    37    15    46    1
    38    15    47    1
    39    16    25   ar
    40    16    17   ar
    41    17    18   ar
    42    17    48    1
    43    18    19   ar
    44    19    24   ar
    45    19    20   ar
    46    20    21   ar
    47    20    49    1
    48    21    22   ar
    49    21    50    1
    50    22    23   ar
    51    22    51    1
    52    23    24   ar
    53    24    25   ar
    54    25    52    1
    55    26    53    1
    56    26    54    1
    57    27    28    1
    58    27    55    1
    59    27    56    1
    60    28    57    1
    61    28    58    1
@<TRIPOS>SUBSTRUCTURE
     1 ZINC001139743874        1 TEMP              0 ****  ****    0 ROOT


##########                                Name:    ZINC000062882109
##########                DOCK_Rotatable_Bonds:                   8
##########                         Heavy_Atoms:                  31
##########                    Molecular_Weight:             424.497
##########                DOCK_Rotatable_Bonds:                   8
##########                       Formal_Charge:           0.0299993
##########                     HBond_Acceptors:                   7
##########                        HBond_Donors:                   1
##########                         Heavy_Atoms:                  31
##########                          Grid_Score:          -29.262928
##########                     Grid_vdw_energy:          -28.822119
##########                      Grid_es_energy:           -0.440808
##########           Internal_energy_repulsive:          182.718948

@<TRIPOS>MOLECULE
ZINC000062882109
 59 61 1 0 0
SMALL
USER_CHARGES


@<TRIPOS>ATOM
      1 C1         -9.8044    2.4750   65.4795 C.3     1  ZINC000062882109   -0.2000
      2 C2        -10.6946    1.6265   64.6087 C.2     1  ZINC000062882109    0.3900
      3 O3        -11.8988    1.7581   64.6621 O.2     1  ZINC000062882109   -0.4500
      4 C4        -10.1024    0.6379   63.6930 C.ar    1  ZINC000062882109   -0.1300
      5 C5         -8.7139    0.4845   63.6280 C.ar    1  ZINC000062882109   -0.1100
      6 C6         -8.1635   -0.4432   62.7683 C.ar    1  ZINC000062882109   -0.0900
      7 C7         -8.9798   -1.2230   61.9697 C.ar    1  ZINC000062882109   -0.1800
      8 C8        -10.3601   -1.0784   62.0262 C.ar    1  ZINC000062882109    0.1200
      9 O9        -11.1563   -1.8482   61.2383 O.3     1  ZINC000062882109   -0.2800
     10 C10       -12.0542   -1.1663   60.3604 C.3     1  ZINC000062882109    0.0700
     11 H11       -12.7846   -0.6102   60.9479 H       1  ZINC000062882109    0.1000
     12 C12       -12.7783   -2.1860   59.4790 C.3     1  ZINC000062882109   -0.1800
     13 C13       -11.2777   -0.2119   59.4901 C.2     1  ZINC000062882109    0.5200
     14 O14       -11.7945    0.8159   59.1060 O.2     1  ZINC000062882109   -0.4900
     15 N15       -10.0089   -0.5006   59.1387 N.am    1  ZINC000062882109   -0.6600
     16 C16        -9.2870    0.3867   58.3296 C.ar    1  ZINC000062882109    0.1400
     17 C17        -8.2321    1.1136   58.8645 C.ar    1  ZINC000062882109   -0.1000
     18 C18        -7.5188    1.9910   58.0703 C.ar    1  ZINC000062882109   -0.1100
     19 C19        -7.8534    2.1501   56.7339 C.ar    1  ZINC000062882109    0.0800
     20 O20        -7.1493    3.0231   55.9648 O.3     1  ZINC000062882109   -0.3100
     21 C21        -7.2059    2.8563   54.5462 C.3     1  ZINC000062882109    0.0500
     22 C22        -8.6756    2.7263   54.1215 C.3     1  ZINC000062882109    0.0400
     23 N23        -9.2464    1.5745   54.8406 N.am    1  ZINC000062882109   -0.5500
     24 C24       -10.0634    0.7003   54.2201 C.2     1  ZINC000062882109    0.5300
     25 O25       -10.5219   -0.2408   54.8326 O.2     1  ZINC000062882109   -0.5100
     26 C26       -10.4073    0.8925   52.7655 C.3     1  ZINC000062882109   -0.0800
     27 C27       -11.4683   -0.1299   52.3530 C.3     1  ZINC000062882109   -0.1300
     28 C28       -10.9516    2.3064   52.5526 C.3     1  ZINC000062882109   -0.1600
     29 C29        -9.1513    0.6959   51.9142 C.3     1  ZINC000062882109   -0.1500
     30 C30        -8.9093    1.4183   56.1960 C.ar    1  ZINC000062882109    0.1000
     31 C31        -9.6222    0.5360   56.9903 C.ar    1  ZINC000062882109   -0.1400
     32 C32       -10.9256   -0.1557   62.8888 C.ar    1  ZINC000062882109   -0.0900
     33 H33       -10.4178    3.1425   66.0848 H       1  ZINC000062882109    0.0900
     34 H34        -9.2146    1.8316   66.1324 H       1  ZINC000062882109    0.1000
     35 H35        -9.1369    3.0648   64.8513 H       1  ZINC000062882109    0.1000
     36 H36        -8.0733    1.0921   64.2498 H       1  ZINC000062882109    0.1400
     37 H37        -7.0911   -0.5607   62.7184 H       1  ZINC000062882109    0.1300
     38 H38        -8.5422   -1.9475   61.2989 H       1  ZINC000062882109    0.1300
     39 H39       -13.3399   -2.8763   60.1085 H       1  ZINC000062882109    0.0800
     40 H40       -13.4633   -1.6658   58.8093 H       1  ZINC000062882109    0.0800
     41 H41       -12.0479   -2.7422   58.8915 H       1  ZINC000062882109    0.0800
     42 H42        -9.5956   -1.3225   59.4459 H       1  ZINC000062882109    0.4100
     43 H43        -7.9683    0.9932   59.9048 H       1  ZINC000062882109    0.1400
     44 H44        -6.6992    2.5544   58.4913 H       1  ZINC000062882109    0.1400
     45 H45        -6.7600    3.7231   54.0584 H       1  ZINC000062882109    0.1300
     46 H46        -6.6624    1.9552   54.2623 H       1  ZINC000062882109    0.0700
     47 H47        -9.2187    3.6336   54.3858 H       1  ZINC000062882109    0.0900
     48 H48        -8.7363    2.5580   53.0461 H       1  ZINC000062882109    0.1300
     49 H49       -12.3631    0.0102   52.9594 H       1  ZINC000062882109    0.0600
     50 H50       -11.7170    0.0091   51.3008 H       1  ZINC000062882109    0.0700
     51 H51       -11.0805   -1.1372   52.5046 H       1  ZINC000062882109    0.0700
     52 H52       -10.1958    3.0348   52.8464 H       1  ZINC000062882109    0.0700
     53 H53       -11.2003    2.4454   51.5005 H       1  ZINC000062882109    0.0800
     54 H54       -11.8463    2.4465   53.1590 H       1  ZINC000062882109    0.0600
     55 H55        -8.8776   -0.3592   51.9087 H       1  ZINC000062882109    0.0700
     56 H56        -9.3485    1.0255   50.8942 H       1  ZINC000062882109    0.0800
     57 H57        -8.3330    1.2814   52.3334 H       1  ZINC000062882109    0.0700
     58 H58       -10.4397   -0.0312   56.5704 H       1  ZINC000062882109    0.1800
     59 H59       -11.9988   -0.0428   62.9338 H       1  ZINC000062882109    0.1400
@<TRIPOS>BOND
     1     1     2    1
     2     1    33    1
     3     1    34    1
     4     1    35    1
     5     2     3    2
     6     2     4    1
     7     4    32   ar
     8     4     5   ar
     9     5     6   ar
    10     5    36    1
    11     6     7   ar
    12     6    37    1
    13     7     8   ar
    14     7    38    1
    15     8     9    1
    16     8    32   ar
    17     9    10    1
    18    10    11    1
    19    10    12    1
    20    10    13    1
    21    12    39    1
    22    12    40    1
    23    12    41    1
    24    13    14    2
    25    13    15   am
    26    15    16    1
    27    15    42    1
    28    16    31   ar
    29    16    17   ar
    30    17    18   ar
    31    17    43    1
    32    18    19   ar
    33    18    44    1
    34    19    30   ar
    35    19    20    1
    36    20    21    1
    37    21    22    1
    38    21    45    1
    39    21    46    1
    40    22    23    1
    41    22    47    1
    42    22    48    1
    43    23    24   am
    44    23    30    1
    45    24    25    2
    46    24    26    1
    47    26    27    1
    48    26    28    1
    49    26    29    1
    50    27    49    1
    51    27    50    1
    52    27    51    1
    53    28    52    1
    54    28    53    1
    55    28    54    1
    56    29    55    1
    57    29    56    1
    58    29    57    1
    59    30    31   ar
    60    31    58    1
    61    32    59    1
@<TRIPOS>SUBSTRUCTURE
     1 ZINC000062882109        1 TEMP              0 ****  ****    0 ROOT


##########                                Name:    ZINC000866717058
##########                DOCK_Rotatable_Bonds:                   7
##########                         Heavy_Atoms:                  25
##########                    Molecular_Weight:             380.388
##########                DOCK_Rotatable_Bonds:                   7
##########                       Formal_Charge:                0.04
##########                     HBond_Acceptors:                  10
##########                        HBond_Donors:                   1
##########                         Heavy_Atoms:                  25
##########                          Grid_Score:          -29.262106
##########                     Grid_vdw_energy:          -28.060390
##########                      Grid_es_energy:           -1.201715
##########           Internal_energy_repulsive:           18.794914

@<TRIPOS>MOLECULE
ZINC000866717058
 44 45 1 0 0
SMALL
USER_CHARGES


@<TRIPOS>ATOM
      1 C1         -1.5277    5.9299   49.4159 C.3     1  ZINC000866717058   -0.1100
      2 C2         -2.4606    4.8997   49.9981 C.ar    1  ZINC000866717058    0.2400
      3 N3         -3.4401    5.2810   50.7907 N.ar    1  ZINC000866717058   -0.5500
      4 C4         -4.2840    4.4114   51.3251 C.ar    1  ZINC000866717058    0.3500
      5 O5         -5.2762    4.8548   52.1345 O.3     1  ZINC000866717058   -0.2800
      6 C6         -5.1711    4.5365   53.5237 C.3     1  ZINC000866717058    0.0500
      7 H7         -4.5783    3.6299   53.6449 H       1  ZINC000866717058    0.1300
      8 C8         -4.4924    5.6922   54.2618 C.3     1  ZINC000866717058   -0.1700
      9 C9         -6.5695    4.3126   54.1028 C.3     1  ZINC000866717058    0.4600
     10 F10        -6.4612    3.7452   55.3769 F       1  ZINC000866717058   -0.1700
     11 F11        -7.2384    5.5380   54.1933 F       1  ZINC000866717058   -0.1700
     12 F12        -7.2875    3.4500   53.2675 F       1  ZINC000866717058   -0.1700
     13 C13        -4.1669    3.0493   51.0671 C.ar    1  ZINC000866717058   -0.1900
     14 C14        -3.1548    2.6037   50.2417 C.ar    1  ZINC000866717058    0.0000
     15 C15        -2.2816    3.5510   49.6874 C.ar    1  ZINC000866717058   -0.2300
     16 C16        -1.1828    3.1266   48.7977 C.2     1  ZINC000866717058    0.5800
     17 O17        -0.0313    3.1843   49.1838 O.2     1  ZINC000866717058   -0.5200
     18 N18        -1.4559    2.6753   47.5574 N.am    1  ZINC000866717058   -0.7400
     19 C19        -0.3652    2.2558   46.6740 C.3     1  ZINC000866717058    0.1400
     20 C20        -0.3781    0.7320   46.5361 C.3     1  ZINC000866717058   -0.5700
     21 H21         0.5567    0.3763   46.1029 H       1  ZINC000866717058    0.1500
     22 C22        -0.6408    0.0576   47.9073 C.3     1  ZINC000866717058   -0.1100
     23 C23        -1.1180   -1.3747   47.6092 C.3     1  ZINC000866717058   -0.1200
     24 C24        -2.2018   -1.3169   46.5145 C.3     1  ZINC000866717058   -0.5900
     25 S25        -1.8105    0.1816   45.5339 S.o2    1  ZINC000866717058    2.3700
     26 O26        -2.8663    1.1228   45.6707 O.2     1  ZINC000866717058   -0.9200
     27 O27        -1.3671   -0.2047   44.2403 O.2     1  ZINC000866717058   -0.9300
     28 H28        -1.8587    6.1934   48.4114 H       1  ZINC000866717058    0.0900
     29 H29        -1.5313    6.8201   50.0449 H       1  ZINC000866717058    0.0700
     30 H30        -0.5181    5.5214   49.3703 H       1  ZINC000866717058    0.1100
     31 H31        -4.4123    5.4494   55.3214 H       1  ZINC000866717058    0.0900
     32 H32        -3.4963    5.8517   53.8493 H       1  ZINC000866717058    0.0900
     33 H33        -5.0853    6.5987   54.1406 H       1  ZINC000866717058    0.0800
     34 H34        -4.8601    2.3484   51.5082 H       1  ZINC000866717058    0.1600
     35 H35        -3.0404    1.5519   50.0246 H       1  ZINC000866717058    0.1500
     36 H36        -2.3747    2.6281   47.2499 H       1  ZINC000866717058    0.4000
     37 H37        -0.4975    2.7105   45.6923 H       1  ZINC000866717058    0.1000
     38 H38         0.5877    2.5742   47.0965 H       1  ZINC000866717058    0.1000
     39 H39         0.2784    0.0307   48.4923 H       1  ZINC000866717058    0.1100
     40 H40        -1.4131    0.6030   48.4497 H       1  ZINC000866717058    0.0900
     41 H41        -0.2778   -1.9759   47.2617 H       1  ZINC000866717058    0.0900
     42 H42        -1.5340   -1.8181   48.5138 H       1  ZINC000866717058    0.1000
     43 H43        -2.1496   -2.2038   45.8829 H       1  ZINC000866717058    0.1400
     44 H44        -3.1906   -1.2297   46.9649 H       1  ZINC000866717058    0.1400
@<TRIPOS>BOND
     1     1     2    1
     2     1    28    1
     3     1    29    1
     4     1    30    1
     5     2    15   ar
     6     2     3   ar
     7     3     4   ar
     8     4     5    1
     9     4    13   ar
    10     5     6    1
    11     6     7    1
    12     6     8    1
    13     6     9    1
    14     8    31    1
    15     8    32    1
    16     8    33    1
    17     9    10    1
    18     9    11    1
    19     9    12    1
    20    13    14   ar
    21    13    34    1
    22    14    15   ar
    23    14    35    1
    24    15    16    1
    25    16    17    2
    26    16    18   am
    27    18    19    1
    28    18    36    1
    29    19    20    1
    30    19    37    1
    31    19    38    1
    32    20    21    1
    33    20    25    1
    34    20    22    1
    35    22    23    1
    36    22    39    1
    37    22    40    1
    38    23    24    1
    39    23    41    1
    40    23    42    1
    41    24    25    1
    42    24    43    1
    43    24    44    1
    44    25    26    2
    45    25    27    2
@<TRIPOS>SUBSTRUCTURE
     1 ZINC000866717058        1 TEMP              0 ****  ****    0 ROOT


##########                                Name:    ZINC001707162141
##########                DOCK_Rotatable_Bonds:                   9
##########                         Heavy_Atoms:                  25
##########                    Molecular_Weight:               344.5
##########                DOCK_Rotatable_Bonds:                   9
##########                       Formal_Charge:          -0.0299999
##########                     HBond_Acceptors:                   5
##########                        HBond_Donors:                   1
##########                         Heavy_Atoms:                  25
##########                          Grid_Score:          -29.257864
##########                     Grid_vdw_energy:          -29.410976
##########                      Grid_es_energy:            0.153113
##########           Internal_energy_repulsive:           85.925232

@<TRIPOS>MOLECULE
ZINC001707162141
 57 59 1 0 0
SMALL
USER_CHARGES


@<TRIPOS>ATOM
      1 C1         -6.1420    5.9453   52.2836 C.3     1  ZINC001707162141   -0.1800
      2 C2         -5.3816    4.6206   52.1954 C.3     1  ZINC001707162141    0.1700
      3 H3         -5.6303    4.1206   51.2593 H       1  ZINC001707162141    0.1000
      4 N4         -3.9367    4.8811   52.2426 N.3     1  ZINC001707162141   -0.6400
      5 C5         -3.2139    4.0102   51.3060 C.3     1  ZINC001707162141    0.0700
      6 C6         -1.7119    4.2804   51.4141 C.3     1  ZINC001707162141    0.1500
      7 H7         -1.3581    3.9877   52.4027 H       1  ZINC001707162141    0.0700
      8 C8         -1.4407    5.7712   51.1889 C.3     1  ZINC001707162141   -0.1200
      9 C9          0.0703    6.0121   51.1598 C.3     1  ZINC001707162141   -0.0900
     10 H10         0.5092    5.6791   52.1004 H       1  ZINC001707162141    0.0700
     11 C11         0.3449    7.5052   50.9696 C.3     1  ZINC001707162141   -0.1500
     12 C12         0.6914    5.2279   50.0017 C.3     1  ZINC001707162141   -0.1300
     13 C13         0.4444    3.7309   50.2134 C.3     1  ZINC001707162141    0.1100
     14 N14        -0.9976    3.5095   50.3874 N.am    1  ZINC001707162141   -0.6100
     15 C15        -1.6528    2.6165   49.6194 C.2     1  ZINC001707162141    0.5100
     16 O16        -2.8432    2.4428   49.7728 O.2     1  ZINC001707162141   -0.4800
     17 C17        -0.9062    1.8338   48.5700 C.3     1  ZINC001707162141   -0.1400
     18 C18        -1.9000    1.2617   47.5573 C.3     1  ZINC001707162141   -0.0900
     19 C19        -1.2128    0.1770   46.7253 C.3     1  ZINC001707162141   -0.0900
     20 C20        -1.8969   -1.1683   46.9762 C.3     1  ZINC001707162141   -0.1500
     21 C21        -2.1529   -1.5704   48.4301 C.3     1  ZINC001707162141   -0.1800
     22 C22        -1.0620   -2.2759   47.6221 C.3     1  ZINC001707162141   -0.1800
     23 C23        -5.7713    3.7396   53.3544 C.ar    1  ZINC001707162141    0.3500
     24 N24        -4.9053    3.5396   54.3275 N.ar    1  ZINC001707162141   -0.5000
     25 C25        -5.2143    2.7767   55.3638 C.ar    1  ZINC001707162141    0.1500
     26 C26        -6.4627    2.1766   55.4107 C.ar    1  ZINC001707162141   -0.2400
     27 C27        -7.3441    2.4061   54.3660 C.ar    1  ZINC001707162141    0.1500
     28 N28        -6.9670    3.1854   53.3652 N.ar    1  ZINC001707162141   -0.5200
     29 H29        -5.8601    6.5825   51.4454 H       1  ZINC001707162141    0.0600
     30 H30        -7.2140    5.7520   52.2487 H       1  ZINC001707162141    0.0600
     31 H31        -5.8932    6.4453   53.2198 H       1  ZINC001707162141    0.0600
     32 H32        -3.7383    5.8532   52.0589 H       1  ZINC001707162141    0.3300
     33 H33        -3.4141    2.9673   51.5514 H       1  ZINC001707162141    0.1000
     34 H34        -3.5475    4.2146   50.2887 H       1  ZINC001707162141    0.0200
     35 H35        -1.8769    6.0809   50.2392 H       1  ZINC001707162141    0.0700
     36 H36        -1.8856    6.3484   51.9995 H       1  ZINC001707162141    0.0700
     37 H37        -0.0934    7.8382   50.0288 H       1  ZINC001707162141    0.0500
     38 H38        -0.0974    8.0639   51.7945 H       1  ZINC001707162141    0.0600
     39 H39         1.4211    7.6770   50.9501 H       1  ZINC001707162141    0.0600
     40 H40         1.7641    5.4184   49.9672 H       1  ZINC001707162141    0.0700
     41 H41         0.2352    5.5427   49.0631 H       1  ZINC001707162141    0.0700
     42 H42         0.9758    3.3953   51.1039 H       1  ZINC001707162141    0.0600
     43 H43         0.7971    3.1758   49.3441 H       1  ZINC001707162141    0.0800
     44 H44        -0.2035    2.4911   48.0580 H       1  ZINC001707162141    0.0800
     45 H45        -0.3609    1.0181   49.0447 H       1  ZINC001707162141    0.0800
     46 H46        -2.7499    0.8301   48.0861 H       1  ZINC001707162141    0.0700
     47 H47        -2.2478    2.0583   46.8995 H       1  ZINC001707162141    0.0700
     48 H48        -1.2855    0.4298   45.6675 H       1  ZINC001707162141    0.0600
     49 H49        -0.1632    0.1099   47.0116 H       1  ZINC001707162141    0.0600
     50 H50        -2.6380   -1.4647   46.2338 H       1  ZINC001707162141    0.1000
     51 H51        -1.8340   -0.8764   49.2078 H       1  ZINC001707162141    0.0900
     52 H52        -3.0627   -2.1313   48.6444 H       1  ZINC001707162141    0.0900
     53 H53        -1.2539   -3.3009   47.3048 H       1  ZINC001707162141    0.0900
     54 H54        -0.0253   -2.0461   47.8682 H       1  ZINC001707162141    0.0900
     55 H55        -4.5016    2.6201   56.1599 H       1  ZINC001707162141    0.1600
     56 H56        -6.7421    1.5455   56.2414 H       1  ZINC001707162141    0.1400
     57 H57        -8.3253    1.9547   54.3686 H       1  ZINC001707162141    0.1600
@<TRIPOS>BOND
     1     1     2    1
     2     1    29    1
     3     1    30    1
     4     1    31    1
     5     2     3    1
     6     2     4    1
     7     2    23    1
     8     4     5    1
     9     4    32    1
    10     5     6    1
    11     5    33    1
    12     5    34    1
    13     6     7    1
    14     6    14    1
    15     6     8    1
    16     8     9    1
    17     8    35    1
    18     8    36    1
    19     9    10    1
    20     9    11    1
    21     9    12    1
    22    11    37    1
    23    11    38    1
    24    11    39    1
    25    12    13    1
    26    12    40    1
    27    12    41    1
    28    13    14    1
    29    13    42    1
    30    13    43    1
    31    14    15   am
    32    15    16    2
    33    15    17    1
    34    17    18    1
    35    17    44    1
    36    17    45    1
    37    18    19    1
    38    18    46    1
    39    18    47    1
    40    19    20    1
    41    19    48    1
    42    19    49    1
    43    20    22    1
    44    20    21    1
    45    20    50    1
    46    21    22    1
    47    21    51    1
    48    21    52    1
    49    22    53    1
    50    22    54    1
    51    23    28   ar
    52    23    24   ar
    53    24    25   ar
    54    25    26   ar
    55    25    55    1
    56    26    27   ar
    57    26    56    1
    58    27    28   ar
    59    27    57    1
@<TRIPOS>SUBSTRUCTURE
     1 ZINC001707162141        1 TEMP              0 ****  ****    0 ROOT


##########                                Name:    ZINC000186316242
##########                DOCK_Rotatable_Bonds:                   7
##########                         Heavy_Atoms:                  28
##########                    Molecular_Weight:             392.525
##########                DOCK_Rotatable_Bonds:                   7
##########                       Formal_Charge:         -0.00999981
##########                     HBond_Acceptors:                   6
##########                        HBond_Donors:                   0
##########                         Heavy_Atoms:                  28
##########                          Grid_Score:          -29.246542
##########                     Grid_vdw_energy:          -30.647741
##########                      Grid_es_energy:            1.401199
##########           Internal_energy_repulsive:           21.465015

@<TRIPOS>MOLECULE
ZINC000186316242
 52 55 1 0 0
SMALL
USER_CHARGES


@<TRIPOS>ATOM
      1 C1         -1.9625    7.1842   52.2106 C.3     1  ZINC000186316242   -0.1500
      2 C2         -1.9204    5.6797   52.4860 C.3     1  ZINC000186316242    0.1000
      3 N3         -2.0788    4.9481   51.2267 N.am    1  ZINC000186316242   -0.5900
      4 C4         -3.2696    4.4024   50.9096 C.2     1  ZINC000186316242    0.5900
      5 O5         -3.4012    3.7950   49.8642 O.2     1  ZINC000186316242   -0.5000
      6 C6         -4.4123    4.5419   51.8294 C.2     1  ZINC000186316242    0.0100
      7 C7         -5.3747    5.4928   51.6645 C.2     1  ZINC000186316242   -0.2100
      8 S8         -6.5265    5.3423   52.9197 S.3     1  ZINC000186316242    0.2000
      9 C9         -5.6331    3.9892   53.6033 C.2     1  ZINC000186316242    0.0700
     10 C10        -6.0204    3.2368   54.8165 C.ar    1  ZINC000186316242    0.1900
     11 C11        -7.2784    3.4385   55.3835 C.ar    1  ZINC000186316242   -0.1500
     12 C12        -7.6263    2.7266   56.5186 C.ar    1  ZINC000186316242   -0.0700
     13 C13        -6.7049    1.8358   57.0501 C.ar    1  ZINC000186316242   -0.1600
     14 C14        -5.4743    1.6848   56.4364 C.ar    1  ZINC000186316242    0.1100
     15 N15        -5.1694    2.3704   55.3542 N.ar    1  ZINC000186316242   -0.4500
     16 N16        -4.5853    3.7491   52.8763 N.2     1  ZINC000186316242   -0.3900
     17 C17        -0.9428    4.8094   50.3121 C.3     1  ZINC000186316242    0.1400
     18 H18        -0.0416    5.2241   50.7638 H       1  ZINC000186316242    0.1000
     19 C19        -1.2445    5.5161   48.9707 C.3     1  ZINC000186316242   -0.1300
     20 C20        -0.6323    4.5505   47.9250 C.3     1  ZINC000186316242    0.0400
     21 N21        -0.9293    3.2082   48.4871 N.3     1  ZINC000186316242   -0.4900
     22 C22        -0.0389    2.1893   47.9153 C.3     1  ZINC000186316242    0.0800
     23 C23        -0.8644    1.0826   47.3112 C.ar    1  ZINC000186316242   -0.0700
     24 C24        -1.0232   -0.1109   47.9903 C.ar    1  ZINC000186316242   -0.1000
     25 C25        -1.7804   -1.1260   47.4361 C.ar    1  ZINC000186316242   -0.1200
     26 C26        -2.3793   -0.9474   46.2031 C.ar    1  ZINC000186316242   -0.1200
     27 C27        -2.2213    0.2465   45.5245 C.ar    1  ZINC000186316242   -0.1200
     28 C28        -1.4675    1.2632   46.0805 C.ar    1  ZINC000186316242   -0.1100
     29 C29        -0.7262    3.3285   49.9494 C.3     1  ZINC000186316242    0.0400
     30 H30        -1.8446    7.7285   53.1476 H       1  ZINC000186316242    0.0700
     31 H31        -1.1538    7.4518   51.5306 H       1  ZINC000186316242    0.0500
     32 H32        -2.9192    7.4439   51.7575 H       1  ZINC000186316242    0.0400
     33 H33        -0.9637    5.4200   52.9391 H       1  ZINC000186316242    0.1200
     34 H34        -2.7291    5.4119   53.1660 H       1  ZINC000186316242    0.0700
     35 H35        -5.4051    6.2233   50.8696 H       1  ZINC000186316242    0.1900
     36 H36        -7.9711    4.1405   54.9435 H       1  ZINC000186316242    0.1400
     37 H37        -8.5932    2.8619   56.9802 H       1  ZINC000186316242    0.1400
     38 H38        -6.9461    1.2657   57.9352 H       1  ZINC000186316242    0.1400
     39 H39        -4.7550    0.9924   56.8483 H       1  ZINC000186316242    0.1600
     40 H40        -2.3196    5.6159   48.8206 H       1  ZINC000186316242    0.0900
     41 H41        -0.7562    6.4897   48.9291 H       1  ZINC000186316242    0.0700
     42 H42        -1.1145    4.6771   46.9557 H       1  ZINC000186316242    0.0800
     43 H43         0.4438    4.7040   47.8434 H       1  ZINC000186316242    0.0400
     44 H44         0.5827    2.6420   47.1429 H       1  ZINC000186316242    0.0400
     45 H45         0.5974    1.7807   48.7004 H       1  ZINC000186316242    0.0800
     46 H46        -0.5553   -0.2505   48.9536 H       1  ZINC000186316242    0.1200
     47 H47        -1.9039   -2.0587   47.9664 H       1  ZINC000186316242    0.1200
     48 H48        -2.9704   -1.7406   45.7698 H       1  ZINC000186316242    0.1200
     49 H49        -2.6889    0.3860   44.5610 H       1  ZINC000186316242    0.1200
     50 H50        -1.3441    2.1960   45.5503 H       1  ZINC000186316242    0.1200
     51 H51         0.2877    3.0247   50.2098 H       1  ZINC000186316242    0.0500
     52 H52        -1.4499    2.7075   50.4772 H       1  ZINC000186316242    0.0800
@<TRIPOS>BOND
     1     1     2    1
     2     1    30    1
     3     1    31    1
     4     1    32    1
     5     2     3    1
     6     2    33    1
     7     2    34    1
     8     3     4   am
     9     3    17    1
    10     4     5    2
    11     4     6    1
    12     6    16    1
    13     6     7    2
    14     7     8    1
    15     7    35    1
    16     8     9    1
    17     9    10    1
    18     9    16    2
    19    10    15   ar
    20    10    11   ar
    21    11    12   ar
    22    11    36    1
    23    12    13   ar
    24    12    37    1
    25    13    14   ar
    26    13    38    1
    27    14    15   ar
    28    14    39    1
    29    17    18    1
    30    17    29    1
    31    17    19    1
    32    19    20    1
    33    19    40    1
    34    19    41    1
    35    20    21    1
    36    20    42    1
    37    20    43    1
    38    21    22    1
    39    21    29    1
    40    22    23    1
    41    22    44    1
    42    22    45    1
    43    23    28   ar
    44    23    24   ar
    45    24    25   ar
    46    24    46    1
    47    25    26   ar
    48    25    47    1
    49    26    27   ar
    50    26    48    1
    51    27    28   ar
    52    27    49    1
    53    28    50    1
    54    29    51    1
    55    29    52    1
@<TRIPOS>SUBSTRUCTURE
     1 ZINC000186316242        1 TEMP              0 ****  ****    0 ROOT


##########                                Name:    ZINC000851838607
##########                DOCK_Rotatable_Bonds:                  12
##########                         Heavy_Atoms:                  23
##########                    Molecular_Weight:             352.495
##########                DOCK_Rotatable_Bonds:                  12
##########                       Formal_Charge:          0.00999896
##########                     HBond_Acceptors:                   8
##########                        HBond_Donors:                   2
##########                         Heavy_Atoms:                  23
##########                          Grid_Score:          -29.214458
##########                     Grid_vdw_energy:          -28.299547
##########                      Grid_es_energy:           -0.914911
##########           Internal_energy_repulsive:           20.053980

@<TRIPOS>MOLECULE
ZINC000851838607
 55 54 1 0 0
SMALL
USER_CHARGES


@<TRIPOS>ATOM
      1 C1          2.9855    1.7433   39.1111 C.3     1  ZINC000851838607    0.0300
      2 O2          3.2408    1.6324   40.5128 O.3     1  ZINC000851838607   -0.3800
      3 C3          2.1339    2.0046   41.3365 C.3     1  ZINC000851838607    0.0800
      4 C4          2.5183    1.8471   42.8090 C.3     1  ZINC000851838607   -0.6000
      5 H5          2.7847    0.8086   43.0058 H       1  ZINC000851838607    0.1400
      6 C6          3.7140    2.7486   43.1233 C.3     1  ZINC000851838607   -0.1400
      7 S7          1.1133    2.3195   43.8546 S.o2    1  ZINC000851838607    2.6200
      8 O8          0.8696    3.7163   43.7610 O.2     1  ZINC000851838607   -0.9400
      9 O9          0.0550    1.3806   43.7216 O.2     1  ZINC000851838607   -0.9500
     10 N10         1.6593    2.1029   45.4029 N.am    1  ZINC000851838607   -1.1200
     11 C11         0.7783    2.3910   46.5373 C.3     1  ZINC000851838607    0.1100
     12 C12         0.9843    1.3343   47.6244 C.3     1  ZINC000851838607   -0.1400
     13 C13        -0.3108    1.1623   48.4206 C.3     1  ZINC000851838607    0.1700
     14 H14        -0.0776    0.7866   49.4169 H       1  ZINC000851838607    0.1000
     15 N15        -0.9903    2.4553   48.5329 N.am    1  ZINC000851838607   -0.7100
     16 C16        -0.5491    3.3741   49.4148 C.2     1  ZINC000851838607    0.6500
     17 O17         0.4132    3.1304   50.1159 O.2     1  ZINC000851838607   -0.5600
     18 O18        -1.1745    4.5617   49.5193 O.3     1  ZINC000851838607   -0.3700
     19 C19        -2.1094    4.7200   50.6189 C.3     1  ZINC000851838607    0.1400
     20 C20        -2.8473    3.4006   50.8550 C.3     1  ZINC000851838607   -0.1800
     21 C21        -1.3454    5.1108   51.8856 C.3     1  ZINC000851838607   -0.1400
     22 C22        -3.1207    5.8154   50.2750 C.3     1  ZINC000851838607   -0.1800
     23 C23        -1.2235    0.1674   47.7010 C.3     1  ZINC000851838607   -0.1100
     24 C24        -0.8310   -1.2590   48.0910 C.3     1  ZINC000851838607   -0.1500
     25 C25        -2.6769    0.4248   48.1042 C.3     1  ZINC000851838607   -0.1400
     26 H26         2.1515    1.0953   38.8414 H       1  ZINC000851838607    0.0400
     27 H27         2.7364    2.7761   38.8678 H       1  ZINC000851838607    0.0500
     28 H28         3.8736    1.4429   38.5551 H       1  ZINC000851838607    0.0900
     29 H29         1.8676    3.0430   41.1396 H       1  ZINC000851838607    0.0700
     30 H30         1.2822    1.3623   41.1125 H       1  ZINC000851838607    0.0600
     31 H31         3.9306    2.7058   44.1907 H       1  ZINC000851838607    0.0700
     32 H32         4.5837    2.4074   42.5619 H       1  ZINC000851838607    0.0900
     33 H33         3.4791    3.7749   42.8411 H       1  ZINC000851838607    0.0700
     34 H34         2.5625    1.7851   45.5587 H       1  ZINC000851838607    0.4200
     35 H35         1.0139    3.3765   46.9392 H       1  ZINC000851838607    0.0700
     36 H36        -0.2596    2.3729   46.2051 H       1  ZINC000851838607    0.0800
     37 H37         1.2553    0.3853   47.1618 H       1  ZINC000851838607    0.0800
     38 H38         1.7830    1.6530   48.2942 H       1  ZINC000851838607    0.1000
     39 H39        -1.7576    2.6504   47.9726 H       1  ZINC000851838607    0.4100
     40 H40        -2.1268    2.6202   51.1001 H       1  ZINC000851838607    0.0600
     41 H41        -3.5491    3.5195   51.6804 H       1  ZINC000851838607    0.0700
     42 H42        -3.3915    3.1222   49.9526 H       1  ZINC000851838607    0.0900
     43 H43        -0.8197    6.0508   51.7175 H       1  ZINC000851838607    0.0700
     44 H44        -2.0472    5.2296   52.7112 H       1  ZINC000851838607    0.0800
     45 H45        -0.6250    4.3304   52.1308 H       1  ZINC000851838607    0.0700
     46 H46        -3.6650    5.5371   49.3725 H       1  ZINC000851838607    0.0900
     47 H47        -3.8225    5.9343   51.1004 H       1  ZINC000851838607    0.0700
     48 H48        -2.5950    6.7554   50.1068 H       1  ZINC000851838607    0.0600
     49 H49        -1.1181    0.2914   46.6232 H       1  ZINC000851838607    0.0700
     50 H50        -0.9364   -1.3831   49.1688 H       1  ZINC000851838607    0.0600
     51 H51        -1.4814   -1.9678   47.5784 H       1  ZINC000851838607    0.0600
     52 H52         0.2043   -1.4424   47.8038 H       1  ZINC000851838607    0.0600
     53 H53        -2.9565    1.4410   47.8264 H       1  ZINC000851838607    0.0500
     54 H54        -3.3271   -0.2840   47.5916 H       1  ZINC000851838607    0.0500
     55 H55        -2.7823    0.3007   49.1820 H       1  ZINC000851838607    0.0700
@<TRIPOS>BOND
     1     1     2    1
     2     1    26    1
     3     1    27    1
     4     1    28    1
     5     2     3    1
     6     3     4    1
     7     3    29    1
     8     3    30    1
     9     4     5    1
    10     4     6    1
    11     4     7    1
    12     6    31    1
    13     6    32    1
    14     6    33    1
    15     7     8    2
    16     7     9    2
    17     7    10   am
    18    10    11    1
    19    10    34    1
    20    11    12    1
    21    11    35    1
    22    11    36    1
    23    12    13    1
    24    12    37    1
    25    12    38    1
    26    13    14    1
    27    13    15    1
    28    13    23    1
    29    15    16   am
    30    15    39    1
    31    16    17    2
    32    16    18    1
    33    18    19    1
    34    19    20    1
    35    19    21    1
    36    19    22    1
    37    20    40    1
    38    20    41    1
    39    20    42    1
    40    21    43    1
    41    21    44    1
    42    21    45    1
    43    22    46    1
    44    22    47    1
    45    22    48    1
    46    23    24    1
    47    23    25    1
    48    23    49    1
    49    24    50    1
    50    24    51    1
    51    24    52    1
    52    25    53    1
    53    25    54    1
    54    25    55    1
@<TRIPOS>SUBSTRUCTURE
     1 ZINC000851838607        1 TEMP              0 ****  ****    0 ROOT


##########                                Name:    ZINC000271662144
##########                DOCK_Rotatable_Bonds:                   8
##########                         Heavy_Atoms:                  26
##########                    Molecular_Weight:             390.402
##########                DOCK_Rotatable_Bonds:                   8
##########                       Formal_Charge:          0.00999944
##########                     HBond_Acceptors:                   9
##########                        HBond_Donors:                   3
##########                         Heavy_Atoms:                  26
##########                          Grid_Score:          -29.206541
##########                     Grid_vdw_energy:          -28.439011
##########                      Grid_es_energy:           -0.767531
##########           Internal_energy_repulsive:           11.425774

@<TRIPOS>MOLECULE
ZINC000271662144
 44 45 1 0 0
SMALL
USER_CHARGES


@<TRIPOS>ATOM
      1 C1         -0.4093    4.3213   47.3597 C.3     1  ZINC000271662144   -0.1400
      2 C2         -0.7223    3.5143   48.6213 C.3     1  ZINC000271662144    0.1200
      3 H3         -1.7999    3.4974   48.7837 H       1  ZINC000271662144    0.0600
      4 N4         -0.0626    4.1367   49.7769 N.3     1  ZINC000271662144   -0.6700
      5 C5         -0.9679    4.1931   50.9325 C.3     1  ZINC000271662144    0.1300
      6 H6         -1.3752    3.2003   51.1237 H       1  ZINC000271662144    0.1100
      7 C7         -0.1953    4.6731   52.1626 C.3     1  ZINC000271662144   -0.2000
      8 C8         -0.9986    4.3551   53.4255 C.3     1  ZINC000271662144    0.4600
      9 F9         -2.1723    5.1163   53.4355 F       1  ZINC000271662144   -0.1800
     10 F10        -1.3248    2.9948   53.4405 F       1  ZINC000271662144   -0.1800
     11 F11        -0.2330    4.6637   54.5551 F       1  ZINC000271662144   -0.1700
     12 C12        -2.0945    5.1508   50.6416 C.ar    1  ZINC000271662144   -0.0900
     13 C13        -1.8156    6.4494   50.2580 C.ar    1  ZINC000271662144   -0.0600
     14 C14        -2.8478    7.3285   49.9910 C.ar    1  ZINC000271662144   -0.1600
     15 C15        -4.1620    6.9081   50.1074 C.ar    1  ZINC000271662144    0.1000
     16 F16        -5.1719    7.7667   49.8463 F       1  ZINC000271662144   -0.1400
     17 C17        -4.4402    5.6073   50.4912 C.ar    1  ZINC000271662144   -0.1500
     18 C18        -3.4061    4.7285   50.7531 C.ar    1  ZINC000271662144   -0.0700
     19 C19        -0.2172    2.1044   48.4539 C.ar    1  ZINC000271662144   -0.1100
     20 C20         1.1420    1.8565   48.4216 C.ar    1  ZINC000271662144   -0.0400
     21 C21         1.6053    0.5629   48.2681 C.ar    1  ZINC000271662144   -0.1400
     22 C22         0.7092   -0.4824   48.1473 C.ar    1  ZINC000271662144   -0.0200
     23 C23        -0.6506   -0.2346   48.1804 C.ar    1  ZINC000271662144   -0.6800
     24 S24        -1.7931   -1.5670   48.0259 S.o2    1  ZINC000271662144    2.7000
     25 N25        -0.9916   -2.9518   48.4529 N.am    1  ZINC000271662144   -1.2500
     26 O26        -2.7895   -1.3582   49.0171 O.2     1  ZINC000271662144   -0.9600
     27 O27        -2.0874   -1.6846   46.6407 O.2     1  ZINC000271662144   -0.9600
     28 C28        -1.1137    1.0581   48.3383 C.ar    1  ZINC000271662144   -0.0100
     29 H29        -0.7745    5.3412   47.4807 H       1  ZINC000271662144    0.0600
     30 H30         0.6685    4.3383   47.1972 H       1  ZINC000271662144    0.0700
     31 H31        -0.8987    3.8595   46.5021 H       1  ZINC000271662144    0.0600
     32 H32         0.7913    3.6524   50.0099 H       1  ZINC000271662144    0.3500
     33 H33         0.7682    4.1654   52.2076 H       1  ZINC000271662144    0.1100
     34 H34        -0.0361    5.7492   52.0948 H       1  ZINC000271662144    0.1200
     35 H35        -0.7904    6.7770   50.1672 H       1  ZINC000271662144    0.1300
     36 H36        -2.6297    8.3431   49.6921 H       1  ZINC000271662144    0.1400
     37 H37        -5.4648    5.2784   50.5828 H       1  ZINC000271662144    0.1400
     38 H38        -3.6230    3.7137   51.0521 H       1  ZINC000271662144    0.1300
     39 H39         1.8423    2.6732   48.5159 H       1  ZINC000271662144    0.1400
     40 H40         2.6676    0.3692   48.2421 H       1  ZINC000271662144    0.1400
     41 H41         1.0711   -1.4928   48.0266 H       1  ZINC000271662144    0.1400
     42 H42        -0.6132   -3.0386   49.3418 H       1  ZINC000271662144    0.4200
     43 H43        -0.9006   -3.6761   47.8142 H       1  ZINC000271662144    0.4200
     44 H44        -2.1759    1.2518   48.3642 H       1  ZINC000271662144    0.1400
@<TRIPOS>BOND
     1     1     2    1
     2     1    29    1
     3     1    30    1
     4     1    31    1
     5     2     3    1
     6     2     4    1
     7     2    19    1
     8     4     5    1
     9     4    32    1
    10     5     6    1
    11     5     7    1
    12     5    12    1
    13     7     8    1
    14     7    33    1
    15     7    34    1
    16     8     9    1
    17     8    10    1
    18     8    11    1
    19    12    18   ar
    20    12    13   ar
    21    13    14   ar
    22    13    35    1
    23    14    15   ar
    24    14    36    1
    25    15    16    1
    26    15    17   ar
    27    17    18   ar
    28    17    37    1
    29    18    38    1
    30    19    28   ar
    31    19    20   ar
    32    20    21   ar
    33    20    39    1
    34    21    22   ar
    35    21    40    1
    36    22    23   ar
    37    22    41    1
    38    23    24    1
    39    23    28   ar
    40    24    25   am
    41    24    26    2
    42    24    27    2
    43    25    42    1
    44    25    43    1
    45    28    44    1
@<TRIPOS>SUBSTRUCTURE
     1 ZINC000271662144        1 TEMP              0 ****  ****    0 ROOT


##########                                Name:    ZINC000541568816
##########                DOCK_Rotatable_Bonds:                   8
##########                         Heavy_Atoms:                  25
##########                    Molecular_Weight:             411.339
##########                DOCK_Rotatable_Bonds:                   8
##########                       Formal_Charge:          -0.0100007
##########                     HBond_Acceptors:                   5
##########                        HBond_Donors:                   1
##########                         Heavy_Atoms:                  25
##########                          Grid_Score:          -29.202654
##########                     Grid_vdw_energy:          -27.457140
##########                      Grid_es_energy:           -1.745513
##########           Internal_energy_repulsive:           20.511707

@<TRIPOS>MOLECULE
ZINC000541568816
 52 54 1 0 0
SMALL
USER_CHARGES


@<TRIPOS>ATOM
      1 C1          0.9214    1.8644   43.3391 C.3     1  ZINC000541568816   -0.1500
      2 C2          0.1546    2.5547   44.4690 C.3     1  ZINC000541568816    0.0600
      3 O3          0.6256    2.0719   45.7287 O.3     1  ZINC000541568816   -0.3700
      4 C4         -0.0980    2.5776   46.8524 C.3     1  ZINC000541568816    0.0700
      5 H5         -0.7768    3.3887   46.5889 H       1  ZINC000541568816    0.0900
      6 C6          0.7905    2.8874   48.0700 C.3     1  ZINC000541568816   -0.1700
      7 C7         -0.3274    2.2895   48.9422 C.3     1  ZINC000541568816    0.1500
      8 H8          0.0405    1.6726   49.7621 H       1  ZINC000541568816    0.1100
      9 N9         -1.3258    3.2717   49.3723 N.am    1  ZINC000541568816   -0.7200
     10 C10        -1.1879    3.8980   50.5577 C.2     1  ZINC000541568816    0.7100
     11 O11        -0.2341    3.6491   51.2694 O.2     1  ZINC000541568816   -0.5800
     12 N12        -2.1072    4.8004   50.9540 N.am    1  ZINC000541568816   -0.6300
     13 C13        -3.2555    5.1016   50.0955 C.3     1  ZINC000541568816    0.1000
     14 C14        -2.9204    6.2922   49.1948 C.3     1  ZINC000541568816   -0.1800
     15 C15        -1.9583    5.4799   52.2433 C.3     1  ZINC000541568816    0.1700
     16 C16        -2.5258    4.6123   53.3369 C.ar    1  ZINC000541568816   -0.0700
     17 C17        -1.7634    3.5940   53.8770 C.ar    1  ZINC000541568816   -0.1000
     18 C18        -2.2840    2.7979   54.8804 C.ar    1  ZINC000541568816   -0.1000
     19 C19        -3.5670    3.0203   55.3441 C.ar    1  ZINC000541568816   -0.1200
     20 C20        -4.3304    4.0386   54.8044 C.ar    1  ZINC000541568816   -0.0900
     21 C21        -3.8081    4.8386   53.8043 C.ar    1  ZINC000541568816   -0.0900
     22 Br22       -4.8519    6.2317   53.0656 Br      1  ZINC000541568816   -0.0500
     23 C23        -0.7488    1.4848   47.7063 C.3     1  ZINC000541568816    0.0800
     24 C24        -0.0876    0.1007   47.5872 C.3     1  ZINC000541568816   -0.1200
     25 C25        -1.2787   -0.8543   47.8791 C.3     1  ZINC000541568816   -0.1600
     26 C26        -2.4560   -0.0559   47.2634 C.3     1  ZINC000541568816    0.0500
     27 O27        -2.1551    1.3249   47.5312 O.3     1  ZINC000541568816   -0.3600
     28 H28         1.9851    2.0812   43.4366 H       1  ZINC000541568816    0.0600
     29 H29         0.7632    0.7876   43.3977 H       1  ZINC000541568816    0.0600
     30 H30         0.5620    2.2327   42.3782 H       1  ZINC000541568816    0.0700
     31 H31         0.3127    3.6316   44.4103 H       1  ZINC000541568816    0.0500
     32 H32        -0.9092    2.3379   44.3715 H       1  ZINC000541568816    0.0500
     33 H33         1.7162    2.3122   48.0924 H       1  ZINC000541568816    0.1000
     34 H34         0.9495    3.9531   48.2344 H       1  ZINC000541568816    0.0800
     35 H35        -2.0861    3.4711   48.8039 H       1  ZINC000541568816    0.4000
     36 H36        -3.4859    4.2330   49.4789 H       1  ZINC000541568816    0.0900
     37 H37        -4.1181    5.3465   50.7153 H       1  ZINC000541568816    0.0700
     38 H38        -2.0578    6.0474   48.5750 H       1  ZINC000541568816    0.0600
     39 H39        -3.7747    6.5163   48.5561 H       1  ZINC000541568816    0.0700
     40 H40        -2.6899    7.1609   49.8115 H       1  ZINC000541568816    0.0600
     41 H41        -0.9015    5.6639   52.4370 H       1  ZINC000541568816    0.1000
     42 H42        -2.4936    6.4290   52.2178 H       1  ZINC000541568816    0.1100
     43 H43        -0.7609    3.4198   53.5150 H       1  ZINC000541568816    0.1300
     44 H44        -1.6882    2.0017   55.3019 H       1  ZINC000541568816    0.1300
     45 H45        -3.9733    2.3982   56.1279 H       1  ZINC000541568816    0.1300
     46 H46        -5.3330    4.2122   55.1665 H       1  ZINC000541568816    0.1300
     47 H47         0.3020   -0.0592   46.5818 H       1  ZINC000541568816    0.1000
     48 H48         0.6994   -0.0199   48.3317 H       1  ZINC000541568816    0.0900
     49 H49        -1.1471   -1.8116   47.3748 H       1  ZINC000541568816    0.0900
     50 H50        -1.4168   -0.9932   48.9513 H       1  ZINC000541568816    0.0800
     51 H51        -2.5098   -0.2297   46.1887 H       1  ZINC000541568816    0.0600
     52 H52        -3.3947   -0.3379   47.7404 H       1  ZINC000541568816    0.0900
@<TRIPOS>BOND
     1     1     2    1
     2     1    28    1
     3     1    29    1
     4     1    30    1
     5     2     3    1
     6     2    31    1
     7     2    32    1
     8     3     4    1
     9     4     5    1
    10     4    23    1
    11     4     6    1
    12     6     7    1
    13     6    33    1
    14     6    34    1
    15     7     8    1
    16     7     9    1
    17     7    23    1
    18     9    10   am
    19     9    35    1
    20    10    11    2
    21    10    12   am
    22    12    13    1
    23    12    15    1
    24    13    14    1
    25    13    36    1
    26    13    37    1
    27    14    38    1
    28    14    39    1
    29    14    40    1
    30    15    16    1
    31    15    41    1
    32    15    42    1
    33    16    21   ar
    34    16    17   ar
    35    17    18   ar
    36    17    43    1
    37    18    19   ar
    38    18    44    1
    39    19    20   ar
    40    19    45    1
    41    20    21   ar
    42    20    46    1
    43    21    22    1
    44    23    27    1
    45    23    24    1
    46    24    25    1
    47    24    47    1
    48    24    48    1
    49    25    26    1
    50    25    49    1
    51    25    50    1
    52    26    27    1
    53    26    51    1
    54    26    52    1
@<TRIPOS>SUBSTRUCTURE
     1 ZINC000541568816        1 TEMP              0 ****  ****    0 ROOT


##########                                Name:    ZINC000800038938
##########                DOCK_Rotatable_Bonds:                   6
##########                         Heavy_Atoms:                  25
##########                    Molecular_Weight:             386.274
##########                DOCK_Rotatable_Bonds:                   6
##########                       Formal_Charge:           0.0200003
##########                     HBond_Acceptors:                   7
##########                        HBond_Donors:                   0
##########                         Heavy_Atoms:                  25
##########                          Grid_Score:          -29.202456
##########                     Grid_vdw_energy:          -29.062370
##########                      Grid_es_energy:           -0.140085
##########           Internal_energy_repulsive:            9.139297

@<TRIPOS>MOLECULE
ZINC000800038938
 46 48 1 0 0
SMALL
USER_CHARGES


@<TRIPOS>ATOM
      1 C1         -8.3552   -0.6964   61.9226 C.3     1  ZINC000800038938    0.0300
      2 O2         -9.6243   -1.3337   62.0815 O.3     1  ZINC000800038938   -0.3800
      3 C3        -10.6301   -0.8579   61.1847 C.3     1  ZINC000800038938    0.0900
      4 H4        -10.6455    0.2320   61.1859 H       1  ZINC000800038938    0.0700
      5 C5        -12.0107   -1.4064   61.6001 C.3     1  ZINC000800038938   -0.1400
      6 C6        -12.7283   -1.6861   60.2563 C.3     1  ZINC000800038938   -0.1400
      7 C7        -11.5842   -2.2288   59.3644 C.3     1  ZINC000800038938    0.0900
      8 H8        -11.4035   -3.2828   59.5749 H       1  ZINC000800038938    0.0900
      9 O9        -11.9012   -2.0395   57.9601 O.3     1  ZINC000800038938   -0.3500
     10 C10       -12.8114   -2.8676   57.4238 C.2     1  ZINC000800038938    0.4500
     11 O11       -13.1282   -3.8768   58.0078 O.2     1  ZINC000800038938   -0.4800
     12 C12       -13.4380   -2.5387   56.0934 C.3     1  ZINC000800038938    0.1500
     13 H13       -13.5787   -3.4514   55.5143 H       1  ZINC000800038938    0.1200
     14 C14       -14.7972   -1.8408   56.3115 C.3     1  ZINC000800038938   -0.1200
     15 C15       -14.8203   -0.7673   55.1915 C.3     1  ZINC000800038938   -0.1300
     16 C16       -13.3292   -0.3522   55.1277 C.3     1  ZINC000800038938    0.0900
     17 N17       -12.5778   -1.6043   55.3529 N.am    1  ZINC000800038938   -0.6000
     18 C18       -11.3147   -1.8458   54.9493 C.2     1  ZINC000800038938    0.5800
     19 O19       -10.7938   -2.9171   55.1910 O.2     1  ZINC000800038938   -0.4900
     20 C20       -10.5632   -0.8080   54.2131 C.ar    1  ZINC000800038938   -0.1100
     21 C21       -10.0275    0.2859   54.8946 C.ar    1  ZINC000800038938   -0.0700
     22 C22        -9.3265    1.2518   54.2007 C.ar    1  ZINC000800038938   -0.0400
     23 Cl23       -8.6590    2.6129   55.0466 Cl      1  ZINC000800038938   -0.0500
     24 C24        -9.1542    1.1372   52.8313 C.ar    1  ZINC000800038938   -0.0700
     25 C25        -9.6826    0.0562   52.1496 C.ar    1  ZINC000800038938   -0.1000
     26 C26       -10.3807   -0.9205   52.8323 C.ar    1  ZINC000800038938    0.0100
     27 Cl27      -11.0433   -2.2767   51.9747 Cl      1  ZINC000800038938   -0.0300
     28 C28       -10.3582   -1.3797   59.7630 C.3     1  ZINC000800038938   -0.1200
     29 H29        -7.6471   -1.1130   62.6390 H       1  ZINC000800038938    0.0900
     30 H30        -7.9886   -0.8641   60.9099 H       1  ZINC000800038938    0.0400
     31 H31        -8.4618    0.3742   62.0977 H       1  ZINC000800038938    0.0400
     32 H32       -11.8988   -2.3277   62.1719 H       1  ZINC000800038938    0.0800
     33 H33       -12.5589   -0.6621   62.1777 H       1  ZINC000800038938    0.0800
     34 H34       -13.5081   -2.4370   60.3838 H       1  ZINC000800038938    0.0800
     35 H35       -13.1401   -0.7670   59.8397 H       1  ZINC000800038938    0.0800
     36 H36       -15.6179   -2.5471   56.1859 H       1  ZINC000800038938    0.1000
     37 H37       -14.8368   -1.3729   57.2951 H       1  ZINC000800038938    0.0900
     38 H38       -15.1469   -1.1975   54.2447 H       1  ZINC000800038938    0.0900
     39 H39       -15.4492    0.0772   55.4727 H       1  ZINC000800038938    0.1000
     40 H40       -13.0918    0.0600   54.1470 H       1  ZINC000800038938    0.0900
     41 H41       -13.1035    0.3729   55.9097 H       1  ZINC000800038938    0.0800
     42 H42       -10.1614    0.3768   55.9624 H       1  ZINC000800038938    0.1500
     43 H43        -8.6049    1.8957   52.2933 H       1  ZINC000800038938    0.1500
     44 H44        -9.5449   -0.0268   51.0815 H       1  ZINC000800038938    0.1500
     45 H45       -10.2427   -0.5437   59.0730 H       1  ZINC000800038938    0.0900
     46 H46        -9.4592   -1.9961   59.7571 H       1  ZINC000800038938    0.0900
@<TRIPOS>BOND
     1     1     2    1
     2     1    29    1
     3     1    30    1
     4     1    31    1
     5     2     3    1
     6     3     4    1
     7     3    28    1
     8     3     5    1
     9     5     6    1
    10     5    32    1
    11     5    33    1
    12     6     7    1
    13     6    34    1
    14     6    35    1
    15     7     8    1
    16     7     9    1
    17     7    28    1
    18     9    10    1
    19    10    11    2
    20    10    12    1
    21    12    13    1
    22    12    17    1
    23    12    14    1
    24    14    15    1
    25    14    36    1
    26    14    37    1
    27    15    16    1
    28    15    38    1
    29    15    39    1
    30    16    17    1
    31    16    40    1
    32    16    41    1
    33    17    18   am
    34    18    19    2
    35    18    20    1
    36    20    26   ar
    37    20    21   ar
    38    21    22   ar
    39    21    42    1
    40    22    23    1
    41    22    24   ar
    42    24    25   ar
    43    24    43    1
    44    25    26   ar
    45    25    44    1
    46    26    27    1
    47    28    45    1
    48    28    46    1
@<TRIPOS>SUBSTRUCTURE
     1 ZINC000800038938        1 TEMP              0 ****  ****    0 ROOT


##########                                Name:    ZINC000020646552
##########                DOCK_Rotatable_Bonds:                   5
##########                         Heavy_Atoms:                  29
##########                    Molecular_Weight:             412.556
##########                DOCK_Rotatable_Bonds:                   5
##########                       Formal_Charge:          -0.0200012
##########                     HBond_Acceptors:                   7
##########                        HBond_Donors:                   0
##########                         Heavy_Atoms:                  29
##########                          Grid_Score:          -29.173946
##########                     Grid_vdw_energy:          -29.433828
##########                      Grid_es_energy:            0.259881
##########           Internal_energy_repulsive:           15.184755

@<TRIPOS>MOLECULE
ZINC000020646552
 57 60 1 0 0
SMALL
USER_CHARGES


@<TRIPOS>ATOM
      1 C1         -0.7820    3.4788   56.7486 C.3     1  ZINC000020646552    0.0200
      2 N2         -2.1931    3.8022   56.4992 N.3     1  ZINC000020646552   -0.5400
      3 C3         -2.6785    4.8099   57.4515 C.3     1  ZINC000020646552    0.0400
      4 C4         -4.0894    5.2513   57.0482 C.3     1  ZINC000020646552    0.1200
      5 N5         -4.9356    4.0548   56.9237 N.am    1  ZINC000020646552   -0.6100
      6 C6         -6.1248    3.9799   57.5536 C.2     1  ZINC000020646552    0.5300
      7 O7         -6.5106    4.9075   58.2329 O.2     1  ZINC000020646552   -0.5200
      8 C8         -6.9749    2.7435   57.4137 C.3     1  ZINC000020646552   -0.1500
      9 S9         -8.7237    3.1991   57.5160 S.3     1  ZINC000020646552    0.0500
     10 C10        -9.4638    1.6069   57.3694 C.ar    1  ZINC000020646552    0.1500
     11 N11        -9.7940    1.1239   56.1764 N.ar    1  ZINC000020646552   -0.5200
     12 C12       -10.3511   -0.0740   56.0657 C.ar    1  ZINC000020646552    0.3800
     13 C13       -10.7051   -0.5852   54.7190 C.ar    1  ZINC000020646552   -0.0500
     14 C14       -10.6918    0.2717   53.6199 C.ar    1  ZINC000020646552   -0.0700
     15 C15       -11.0216   -0.2094   52.3691 C.ar    1  ZINC000020646552   -0.1300
     16 C16       -11.3649   -1.5394   52.2053 C.ar    1  ZINC000020646552   -0.1000
     17 C17       -11.3802   -2.3943   53.2927 C.ar    1  ZINC000020646552   -0.1300
     18 C18       -11.0466   -1.9254   54.5471 C.ar    1  ZINC000020646552   -0.0700
     19 N19       -10.5992   -0.8262   57.1279 N.ar    1  ZINC000020646552   -0.5200
     20 C20       -10.2956   -0.4048   58.3491 C.ar    1  ZINC000020646552    0.2100
     21 C21        -9.7077    0.8293   58.5073 C.ar    1  ZINC000020646552   -0.2100
     22 C22        -9.3286    1.3584   59.8629 C.3     1  ZINC000020646552    0.1100
     23 O23        -9.9844    0.6077   60.8856 O.3     1  ZINC000020646552   -0.3600
     24 C24        -9.8069   -0.8067   60.7494 C.3     1  ZINC000020646552    0.1100
     25 C25        -8.3233   -1.1211   60.5471 C.3     1  ZINC000020646552   -0.1800
     26 C26       -10.3144   -1.5118   62.0088 C.3     1  ZINC000020646552   -0.1400
     27 C27       -10.5983   -1.2859   59.5323 C.3     1  ZINC000020646552   -0.0900
     28 C28        -4.4498    2.9423   56.0932 C.3     1  ZINC000020646552    0.1100
     29 C29        -3.0247    2.5918   56.5342 C.3     1  ZINC000020646552    0.0400
     30 H30        -0.4267    2.7885   55.9836 H       1  ZINC000020646552    0.0700
     31 H31        -0.1887    4.3927   56.7171 H       1  ZINC000020646552    0.0700
     32 H32        -0.6834    3.0153   57.7302 H       1  ZINC000020646552    0.0300
     33 H33        -2.7040    4.3811   58.4534 H       1  ZINC000020646552    0.0400
     34 H34        -2.0109    5.6715   57.4412 H       1  ZINC000020646552    0.0900
     35 H35        -4.4990    5.9116   57.8125 H       1  ZINC000020646552    0.1000
     36 H36        -4.0505    5.7733   56.0921 H       1  ZINC000020646552    0.0800
     37 H37        -6.7776    2.2739   56.4501 H       1  ZINC000020646552    0.1300
     38 H38        -6.7342    2.0444   58.2146 H       1  ZINC000020646552    0.1200
     39 H39       -10.4243    1.3103   53.7468 H       1  ZINC000020646552    0.1400
     40 H40       -11.0120    0.4537   51.5168 H       1  ZINC000020646552    0.1300
     41 H41       -11.6222   -1.9116   51.2247 H       1  ZINC000020646552    0.1300
     42 H42       -11.6493   -3.4316   53.1590 H       1  ZINC000020646552    0.1300
     43 H43       -11.0589   -2.5937   55.3954 H       1  ZINC000020646552    0.1300
     44 H44        -8.2492    1.2794   59.9926 H       1  ZINC000020646552    0.0800
     45 H45        -9.6236    2.4051   59.9376 H       1  ZINC000020646552    0.1100
     46 H46        -7.7561   -0.7663   61.4076 H       1  ZINC000020646552    0.0700
     47 H47        -8.1909   -2.1981   60.4437 H       1  ZINC000020646552    0.0700
     48 H48        -7.9659   -0.6229   59.6459 H       1  ZINC000020646552    0.0600
     49 H49       -11.3729   -1.2915   62.1471 H       1  ZINC000020646552    0.0700
     50 H50       -10.1782   -2.5880   61.9025 H       1  ZINC000020646552    0.0800
     51 H51        -9.7536   -1.1582   62.8741 H       1  ZINC000020646552    0.0700
     52 H52       -11.6650   -1.2360   59.7508 H       1  ZINC000020646552    0.1000
     53 H53       -10.3233   -2.3155   59.3033 H       1  ZINC000020646552    0.1000
     54 H54        -5.0978    2.0760   56.2263 H       1  ZINC000020646552    0.0900
     55 H55        -4.4455    3.2423   55.0453 H       1  ZINC000020646552    0.0800
     56 H56        -2.6082    1.8447   55.8585 H       1  ZINC000020646552    0.0900
     57 H57        -3.0454    2.1939   57.5488 H       1  ZINC000020646552    0.0400
@<TRIPOS>BOND
     1     1     2    1
     2     1    30    1
     3     1    31    1
     4     1    32    1
     5     2    29    1
     6     2     3    1
     7     3     4    1
     8     3    33    1
     9     3    34    1
    10     4     5    1
    11     4    35    1
    12     4    36    1
    13     5     6   am
    14     5    28    1
    15     6     7    2
    16     6     8    1
    17     8     9    1
    18     8    37    1
    19     8    38    1
    20     9    10    1
    21    10    21   ar
    22    10    11   ar
    23    11    12   ar
    24    12    13    1
    25    12    19   ar
    26    13    18   ar
    27    13    14   ar
    28    14    15   ar
    29    14    39    1
    30    15    16   ar
    31    15    40    1
    32    16    17   ar
    33    16    41    1
    34    17    18   ar
    35    17    42    1
    36    18    43    1
    37    19    20   ar
    38    20    27    1
    39    20    21   ar
    40    21    22    1
    41    22    23    1
    42    22    44    1
    43    22    45    1
    44    23    24    1
    45    24    25    1
    46    24    26    1
    47    24    27    1
    48    25    46    1
    49    25    47    1
    50    25    48    1
    51    26    49    1
    52    26    50    1
    53    26    51    1
    54    27    52    1
    55    27    53    1
    56    28    29    1
    57    28    54    1
    58    28    55    1
    59    29    56    1
    60    29    57    1
@<TRIPOS>SUBSTRUCTURE
     1 ZINC000020646552        1 TEMP              0 ****  ****    0 ROOT


##########                                Name:    ZINC000464867530
##########                DOCK_Rotatable_Bonds:                   8
##########                         Heavy_Atoms:                  30
##########                    Molecular_Weight:              422.49
##########                DOCK_Rotatable_Bonds:                   8
##########                       Formal_Charge:         -0.00999994
##########                     HBond_Acceptors:                   7
##########                        HBond_Donors:                   0
##########                         Heavy_Atoms:                  30
##########                          Grid_Score:          -29.153399
##########                     Grid_vdw_energy:          -28.215559
##########                      Grid_es_energy:           -0.937839
##########           Internal_energy_repulsive:           29.837925

@<TRIPOS>MOLECULE
ZINC000464867530
 59 62 1 0 0
SMALL
USER_CHARGES


@<TRIPOS>ATOM
      1 C1         -7.4270    2.5313   56.1481 C.3     1  ZINC000464867530   -0.1500
      2 C2         -8.4241    2.4244   57.3037 C.3     1  ZINC000464867530   -0.1400
      3 C3         -7.6788    2.0538   58.5875 C.3     1  ZINC000464867530    0.0900
      4 N4         -8.6381    1.5854   59.5909 N.am    1  ZINC000464867530   -0.6100
      5 C5         -8.9460    2.4193   60.7554 C.3     1  ZINC000464867530    0.0700
      6 C6         -9.9817    3.4762   60.3663 C.3     1  ZINC000464867530    0.4300
      7 F7        -11.0032    2.8762   59.6221 F       1  ZINC000464867530   -0.1700
      8 F8        -10.5217    4.0480   61.5232 F       1  ZINC000464867530   -0.1800
      9 F9         -9.3671    4.4705   59.5977 F       1  ZINC000464867530   -0.1800
     10 C10        -9.2372    0.3873   59.4427 C.2     1  ZINC000464867530    0.5300
     11 O11        -8.9821   -0.3031   58.4786 O.2     1  ZINC000464867530   -0.5100
     12 C12       -10.2239   -0.0947   60.4747 C.3     1  ZINC000464867530   -0.1200
     13 H13       -10.8178    0.7470   60.8312 H       1  ZINC000464867530    0.1000
     14 C14        -9.4693   -0.7212   61.6495 C.3     1  ZINC000464867530   -0.1200
     15 C15       -10.4690   -1.1814   62.7129 C.3     1  ZINC000464867530   -0.1300
     16 C16       -11.3954   -2.2432   62.1118 C.3     1  ZINC000464867530    0.1000
     17 N17       -12.0154   -1.6968   60.8970 N.am    1  ZINC000464867530   -0.6100
     18 C18       -13.3549   -1.7023   60.7477 C.2     1  ZINC000464867530    0.5500
     19 O19       -14.0605   -2.1599   61.6214 O.2     1  ZINC000464867530   -0.5300
     20 C20       -13.9757   -1.1398   59.4950 C.3     1  ZINC000464867530   -0.1700
     21 H21       -13.6873   -0.1188   59.2447 H       1  ZINC000464867530    0.1300
     22 C22       -15.4046   -1.5742   59.1570 C.3     1  ZINC000464867530   -0.1300
     23 C23       -14.2293   -2.1027   58.3412 C.3     1  ZINC000464867530   -0.0600
     24 C24       -13.7991   -3.5766   58.4263 C.3     1  ZINC000464867530   -0.0900
     25 C25       -12.7831   -3.6880   57.2680 C.3     1  ZINC000464867530   -0.0800
     26 C26       -13.1802   -2.6067   56.2852 C.ar    1  ZINC000464867530   -0.0900
     27 C27       -12.8402   -2.4359   54.9543 C.ar    1  ZINC000464867530   -0.1100
     28 C28       -13.3279   -1.3560   54.2441 C.ar    1  ZINC000464867530   -0.1100
     29 C29       -14.1586   -0.4418   54.8641 C.ar    1  ZINC000464867530   -0.1200
     30 C30       -14.4997   -0.6100   56.1921 C.ar    1  ZINC000464867530   -0.1000
     31 C31       -14.0127   -1.6916   56.9063 C.ar    1  ZINC000464867530   -0.0700
     32 C32       -11.1480   -1.1436   59.8480 C.3     1  ZINC000464867530    0.1300
     33 H33        -6.6890    3.3007   56.3749 H       1  ZINC000464867530    0.0600
     34 H34        -6.9239    1.5739   56.0126 H       1  ZINC000464867530    0.0600
     35 H35        -7.9579    2.7953   55.2334 H       1  ZINC000464867530    0.0600
     36 H36        -8.9272    3.3818   57.4391 H       1  ZINC000464867530    0.0700
     37 H37        -9.1621    1.6550   57.0769 H       1  ZINC000464867530    0.0700
     38 H38        -6.9600    1.2626   58.3748 H       1  ZINC000464867530    0.0900
     39 H39        -7.1533    2.9295   58.9683 H       1  ZINC000464867530    0.0900
     40 H40        -9.3466    1.7947   61.5538 H       1  ZINC000464867530    0.1300
     41 H41        -8.0368    2.9115   61.1005 H       1  ZINC000464867530    0.1200
     42 H42        -8.8946   -1.5776   61.2967 H       1  ZINC000464867530    0.0800
     43 H43        -8.7932    0.0164   62.0816 H       1  ZINC000464867530    0.0800
     44 H44        -9.9297   -1.6063   63.5595 H       1  ZINC000464867530    0.0900
     45 H45       -11.0611   -0.3299   63.0484 H       1  ZINC000464867530    0.0700
     46 H46       -10.8170   -3.1318   61.8589 H       1  ZINC000464867530    0.0700
     47 H47       -12.1706   -2.5023   62.8328 H       1  ZINC000464867530    0.0900
     48 H48       -15.8953   -2.2668   59.8408 H       1  ZINC000464867530    0.1100
     49 H49       -16.0557   -0.8393   58.6838 H       1  ZINC000464867530    0.1100
     50 H50       -13.3213   -3.7868   59.3832 H       1  ZINC000464867530    0.0700
     51 H51       -14.6491   -4.2391   58.2620 H       1  ZINC000464867530    0.0800
     52 H52       -11.7716   -3.5130   57.6343 H       1  ZINC000464867530    0.0800
     53 H53       -12.8514   -4.6693   56.7983 H       1  ZINC000464867530    0.0800
     54 H54       -12.1908   -3.1496   54.4692 H       1  ZINC000464867530    0.1200
     55 H55       -13.0601   -1.2261   53.2059 H       1  ZINC000464867530    0.1300
     56 H56       -14.5405    0.4034   54.3109 H       1  ZINC000464867530    0.1300
     57 H57       -15.1486    0.1054   56.6753 H       1  ZINC000464867530    0.1200
     58 H58       -11.7601   -0.6777   59.0757 H       1  ZINC000464867530    0.1000
     59 H59       -10.5491   -1.9422   59.4101 H       1  ZINC000464867530    0.0800
@<TRIPOS>BOND
     1     1     2    1
     2     1    33    1
     3     1    34    1
     4     1    35    1
     5     2     3    1
     6     2    36    1
     7     2    37    1
     8     3     4    1
     9     3    38    1
    10     3    39    1
    11     4     5    1
    12     4    10   am
    13     5     6    1
    14     5    40    1
    15     5    41    1
    16     6     7    1
    17     6     8    1
    18     6     9    1
    19    10    11    2
    20    10    12    1
    21    12    13    1
    22    12    32    1
    23    12    14    1
    24    14    15    1
    25    14    42    1
    26    14    43    1
    27    15    16    1
    28    15    44    1
    29    15    45    1
    30    16    17    1
    31    16    46    1
    32    16    47    1
    33    17    18   am
    34    17    32    1
    35    18    19    2
    36    18    20    1
    37    20    21    1
    38    20    23    1
    39    20    22    1
    40    22    23    1
    41    22    48    1
    42    22    49    1
    43    23    31    1
    44    23    24    1
    45    24    25    1
    46    24    50    1
    47    24    51    1
    48    25    26    1
    49    25    52    1
    50    25    53    1
    51    26    31   ar
    52    26    27   ar
    53    27    28   ar
    54    27    54    1
    55    28    29   ar
    56    28    55    1
    57    29    30   ar
    58    29    56    1
    59    30    31   ar
    60    30    57    1
    61    32    58    1
    62    32    59    1
@<TRIPOS>SUBSTRUCTURE
     1 ZINC000464867530        1 TEMP              0 ****  ****    0 ROOT


##########                                Name:    ZINC000618094467
##########                DOCK_Rotatable_Bonds:                   5
##########                         Heavy_Atoms:                  27
##########                    Molecular_Weight:             370.492
##########                DOCK_Rotatable_Bonds:                   5
##########                       Formal_Charge:                0.03
##########                     HBond_Acceptors:                   5
##########                        HBond_Donors:                   0
##########                         Heavy_Atoms:                  27
##########                          Grid_Score:          -29.142410
##########                     Grid_vdw_energy:          -28.277784
##########                      Grid_es_energy:           -0.864625
##########           Internal_energy_repulsive:          104.184044

@<TRIPOS>MOLECULE
ZINC000618094467
 57 59 1 0 0
SMALL
USER_CHARGES


@<TRIPOS>ATOM
      1 C1         -8.2720    2.2573   59.0284 C.3     1  ZINC000618094467   -0.1500
      2 C2         -9.5271    1.3873   59.1217 C.3     1  ZINC000618094467   -0.1000
      3 C3         -9.1692   -0.0620   58.7868 C.3     1  ZINC000618094467   -0.1100
      4 H4         -8.4608   -0.0793   57.9585 H       1  ZINC000618094467    0.1000
      5 C5         -8.5379   -0.7275   60.0115 C.3     1  ZINC000618094467   -0.1500
      6 C6        -10.4174   -0.8104   58.3961 C.2     1  ZINC000618094467    0.5200
      7 O7        -10.9164   -1.6020   59.1676 O.2     1  ZINC000618094467   -0.5000
      8 N8        -10.9794   -0.6000   57.1893 N.am    1  ZINC000618094467   -0.6100
      9 C9        -10.4007    0.3506   56.2338 C.3     1  ZINC000618094467    0.1400
     10 C10       -10.3828   -0.2618   54.8558 C.ar    1  ZINC000618094467   -0.1000
     11 C11        -9.6539    0.3865   53.8684 C.ar    1  ZINC000618094467   -0.1100
     12 C12        -9.6078   -0.1197   52.5855 C.ar    1  ZINC000618094467   -0.1200
     13 C13       -10.2940   -1.2805   52.2816 C.ar    1  ZINC000618094467   -0.1100
     14 C14       -11.0154   -1.9279   53.2632 C.ar    1  ZINC000618094467   -0.1200
     15 C15       -11.0587   -1.4239   54.5572 C.ar    1  ZINC000618094467   -0.0600
     16 C16       -11.8438   -2.1988   55.5824 C.3     1  ZINC000618094467   -0.0800
     17 C17       -12.1951   -1.3195   56.7749 C.3     1  ZINC000618094467    0.1200
     18 H18       -12.9639   -0.6013   56.4897 H       1  ZINC000618094467    0.1000
     19 C19       -12.6939   -2.1759   57.9103 C.2     1  ZINC000618094467    0.5500
     20 O20       -12.1985   -3.2644   58.1118 O.2     1  ZINC000618094467   -0.5200
     21 N21       -13.6904   -1.7320   58.7017 N.am    1  ZINC000618094467   -0.6100
     22 C22       -14.1789   -2.5569   59.8142 C.3     1  ZINC000618094467    0.1200
     23 C23       -14.0345   -1.7625   61.1184 C.3     1  ZINC000618094467   -0.1600
     24 H24       -14.5638   -2.2758   61.9213 H       1  ZINC000618094467    0.1100
     25 C25       -12.5537   -1.6303   61.4798 C.3     1  ZINC000618094467   -0.1400
     26 C26       -14.6335   -0.3888   60.9103 C.2     1  ZINC000618094467    0.3700
     27 O27       -15.4695    0.0426   61.6675 O.2     1  ZINC000618094467   -0.4400
     28 C28       -14.1592    0.4316   59.7309 C.3     1  ZINC000618094467   -0.1600
     29 H29       -13.1146    0.7085   59.8728 H       1  ZINC000618094467    0.1100
     30 C30       -15.0142    1.6940   59.6045 C.3     1  ZINC000618094467   -0.1400
     31 C31       -14.2964   -0.4153   58.4652 C.3     1  ZINC000618094467    0.1400
     32 H32        -7.8694    2.2069   58.0167 H       1  ZINC000618094467    0.0500
     33 H33        -8.5270    3.2898   59.2670 H       1  ZINC000618094467    0.0600
     34 H34        -7.5253    1.8948   59.7350 H       1  ZINC000618094467    0.0600
     35 H35        -9.9296    1.4376   60.1334 H       1  ZINC000618094467    0.0700
     36 H36       -10.2737    1.7497   58.4151 H       1  ZINC000618094467    0.0700
     37 H37        -9.1878   -0.5892   60.8755 H       1  ZINC000618094467    0.0700
     38 H38        -8.4095   -1.7929   59.8202 H       1  ZINC000618094467    0.0700
     39 H39        -7.5668   -0.2746   60.2110 H       1  ZINC000618094467    0.0700
     40 H40       -11.0008    1.2604   56.2185 H       1  ZINC000618094467    0.0900
     41 H41        -9.3819    0.5938   56.5359 H       1  ZINC000618094467    0.1100
     42 H42        -9.1191    1.2943   54.1059 H       1  ZINC000618094467    0.1300
     43 H43        -9.0382    0.3891   51.8218 H       1  ZINC000618094467    0.1300
     44 H44       -10.2655   -1.6794   51.2784 H       1  ZINC000618094467    0.1200
     45 H45       -11.5516   -2.8342   53.0235 H       1  ZINC000618094467    0.1200
     46 H46       -12.7616   -2.5697   55.1259 H       1  ZINC000618094467    0.0900
     47 H47       -11.2480   -3.0445   55.9259 H       1  ZINC000618094467    0.1000
     48 H48       -15.2277   -2.8054   59.6518 H       1  ZINC000618094467    0.0700
     49 H49       -13.5899   -3.4720   59.8766 H       1  ZINC000618094467    0.0900
     50 H50       -12.0463   -1.0344   60.7211 H       1  ZINC000618094467    0.0600
     51 H51       -12.4586   -1.1413   62.4493 H       1  ZINC000618094467    0.0600
     52 H52       -12.1013   -2.6208   61.5266 H       1  ZINC000618094467    0.0700
     53 H53       -14.9252    2.2858   60.5155 H       1  ZINC000618094467    0.0700
     54 H54       -14.6698    2.2824   58.7540 H       1  ZINC000618094467    0.0700
     55 H55       -16.0566    1.4135   59.4539 H       1  ZINC000618094467    0.0600
     56 H56       -13.7870    0.0789   57.6379 H       1  ZINC000618094467    0.1100
     57 H57       -15.3515   -0.5430   58.2234 H       1  ZINC000618094467    0.0700
@<TRIPOS>BOND
     1     1     2    1
     2     1    32    1
     3     1    33    1
     4     1    34    1
     5     2     3    1
     6     2    35    1
     7     2    36    1
     8     3     4    1
     9     3     5    1
    10     3     6    1
    11     5    37    1
    12     5    38    1
    13     5    39    1
    14     6     7    2
    15     6     8   am
    16     8    17    1
    17     8     9    1
    18     9    10    1
    19     9    40    1
    20     9    41    1
    21    10    15   ar
    22    10    11   ar
    23    11    12   ar
    24    11    42    1
    25    12    13   ar
    26    12    43    1
    27    13    14   ar
    28    13    44    1
    29    14    15   ar
    30    14    45    1
    31    15    16    1
    32    16    17    1
    33    16    46    1
    34    16    47    1
    35    17    18    1
    36    17    19    1
    37    19    20    2
    38    19    21   am
    39    21    31    1
    40    21    22    1
    41    22    23    1
    42    22    48    1
    43    22    49    1
    44    23    24    1
    45    23    25    1
    46    23    26    1
    47    25    50    1
    48    25    51    1
    49    25    52    1
    50    26    27    2
    51    26    28    1
    52    28    29    1
    53    28    30    1
    54    28    31    1
    55    30    53    1
    56    30    54    1
    57    30    55    1
    58    31    56    1
    59    31    57    1
@<TRIPOS>SUBSTRUCTURE
     1 ZINC000618094467        1 TEMP              0 ****  ****    0 ROOT


##########                                Name:    ZINC000646817380
##########                DOCK_Rotatable_Bonds:                   6
##########                         Heavy_Atoms:                  25
##########                    Molecular_Weight:             347.457
##########                DOCK_Rotatable_Bonds:                   6
##########                       Formal_Charge:           0.0199991
##########                     HBond_Acceptors:                   6
##########                        HBond_Donors:                   1
##########                         Heavy_Atoms:                  25
##########                          Grid_Score:          -29.136211
##########                     Grid_vdw_energy:          -28.349552
##########                      Grid_es_energy:           -0.786658
##########           Internal_energy_repulsive:           66.768303

@<TRIPOS>MOLECULE
ZINC000646817380
 54 56 1 0 0
SMALL
USER_CHARGES


@<TRIPOS>ATOM
      1 C1         -7.4100    2.0498   64.1159 C.3     1  ZINC000646817380   -0.1500
      2 C2         -7.5959    0.5329   64.0412 C.3     1  ZINC000646817380   -0.0100
      3 C3         -8.3564    0.0507   65.2781 C.3     1  ZINC000646817380   -0.1500
      4 C4         -8.3790    0.1832   62.8020 C.2     1  ZINC000646817380   -0.0100
      5 C5         -9.1508   -0.9116   62.6160 C.2     1  ZINC000646817380   -0.2200
      6 C6         -9.6533   -0.7563   61.2964 C.2     1  ZINC000646817380    0.2400
      7 N7        -10.5070   -1.6246   60.6187 N.am    1  ZINC000646817380   -0.6100
      8 C8        -11.0124   -1.2733   59.4196 C.2     1  ZINC000646817380    0.5200
      9 O9        -10.7229   -0.2015   58.9295 O.2     1  ZINC000646817380   -0.4900
     10 C10       -11.9289   -2.2032   58.6940 C.2     1  ZINC000646817380    0.5300
     11 O11       -12.4509   -3.1252   59.2857 O.2     1  ZINC000646817380   -0.5100
     12 N12       -12.1761   -2.0184   57.3820 N.am    1  ZINC000646817380   -0.5800
     13 C13       -13.0532   -2.8543   56.5494 C.3     1  ZINC000646817380    0.1000
     14 C14       -13.0083   -2.2808   55.1173 C.3     1  ZINC000646817380   -0.1300
     15 C15       -11.6692   -1.4973   55.0986 C.3     1  ZINC000646817380   -0.1000
     16 H16       -10.8293   -2.1637   54.9020 H       1  ZINC000646817380    0.1000
     17 C17       -11.7137   -0.3596   54.0766 C.3     1  ZINC000646817380   -0.0700
     18 H18       -12.7374   -0.0045   53.9578 H       1  ZINC000646817380    0.0800
     19 C19       -10.8026    0.7980   54.5345 C.3     1  ZINC000646817380   -0.1300
     20 C20       -10.1770    1.3312   53.2217 C.3     1  ZINC000646817380   -0.1300
     21 C21        -9.9357    0.0358   52.4074 C.3     1  ZINC000646817380   -0.1200
     22 C22       -11.1637   -0.8445   52.7238 C.3     1  ZINC000646817380   -0.0700
     23 C23       -10.7441   -2.3125   52.8245 C.3     1  ZINC000646817380   -0.1600
     24 C24       -12.2244   -0.6756   51.6342 C.3     1  ZINC000646817380   -0.1400
     25 C25       -11.6166   -0.9408   56.5458 C.3     1  ZINC000646817380    0.0900
     26 N26        -9.1543    0.3649   60.8456 N.2     1  ZINC000646817380   -0.3800
     27 O27        -8.4508    0.8997   61.6709 O.3     1  ZINC000646817380    0.1100
     28 H28        -6.8436    2.3027   65.0122 H       1  ZINC000646817380    0.0700
     29 H29        -6.8682    2.3933   63.2347 H       1  ZINC000646817380    0.0600
     30 H30        -8.3859    2.5339   64.1540 H       1  ZINC000646817380    0.0600
     31 H31        -6.6201    0.0488   64.0031 H       1  ZINC000646817380    0.1100
     32 H32        -9.3323    0.5349   65.3162 H       1  ZINC000646817380    0.0600
     33 H33        -8.4888   -1.0298   65.2249 H       1  ZINC000646817380    0.0600
     34 H34        -7.7900    0.3037   66.1744 H       1  ZINC000646817380    0.0700
     35 H35        -9.3409   -1.7173   63.3098 H       1  ZINC000646817380    0.1900
     36 H36       -10.7374   -2.4818   61.0098 H       1  ZINC000646817380    0.4300
     37 H37       -12.6932   -3.8831   56.5481 H       1  ZINC000646817380    0.0800
     38 H38       -14.0733   -2.8168   56.9318 H       1  ZINC000646817380    0.0800
     39 H39       -12.9955   -3.0840   54.3805 H       1  ZINC000646817380    0.0900
     40 H40       -13.8499   -1.6102   54.9439 H       1  ZINC000646817380    0.0800
     41 H41       -11.3904    1.5767   55.0207 H       1  ZINC000646817380    0.0700
     42 H42       -10.0261    0.4300   55.2052 H       1  ZINC000646817380    0.0800
     43 H43       -10.8726    1.9902   52.7020 H       1  ZINC000646817380    0.0700
     44 H44        -9.2354    1.8424   53.4222 H       1  ZINC000646817380    0.0700
     45 H45        -9.8909    0.2583   51.3412 H       1  ZINC000646817380    0.0700
     46 H46        -9.0192   -0.4553   52.7344 H       1  ZINC000646817380    0.0700
     47 H47        -9.7740   -2.3801   53.3168 H       1  ZINC000646817380    0.0700
     48 H48       -11.4849   -2.8630   53.4044 H       1  ZINC000646817380    0.0600
     49 H49       -10.6747   -2.7399   51.8243 H       1  ZINC000646817380    0.0500
     50 H50       -11.8162   -0.9985   50.6765 H       1  ZINC000646817380    0.0600
     51 H51       -13.0971   -1.2808   51.8798 H       1  ZINC000646817380    0.0500
     52 H52       -12.5157    0.3727   51.5701 H       1  ZINC000646817380    0.0600
     53 H53       -12.2214   -0.0376   56.6271 H       1  ZINC000646817380    0.0900
     54 H54       -10.5863   -0.7359   56.8362 H       1  ZINC000646817380    0.1000
@<TRIPOS>BOND
     1     1     2    1
     2     1    28    1
     3     1    29    1
     4     1    30    1
     5     2     3    1
     6     2     4    1
     7     2    31    1
     8     3    32    1
     9     3    33    1
    10     3    34    1
    11     4    27    1
    12     4     5    2
    13     5     6    1
    14     5    35    1
    15     6     7    1
    16     6    26    2
    17     7     8   am
    18     7    36    1
    19     8     9    2
    20     8    10    1
    21    10    11    2
    22    10    12   am
    23    12    25    1
    24    12    13    1
    25    13    14    1
    26    13    37    1
    27    13    38    1
    28    14    15    1
    29    14    39    1
    30    14    40    1
    31    15    16    1
    32    15    17    1
    33    15    25    1
    34    17    18    1
    35    17    22    1
    36    17    19    1
    37    19    20    1
    38    19    41    1
    39    19    42    1
    40    20    21    1
    41    20    43    1
    42    20    44    1
    43    21    22    1
    44    21    45    1
    45    21    46    1
    46    22    23    1
    47    22    24    1
    48    23    47    1
    49    23    48    1
    50    23    49    1
    51    24    50    1
    52    24    51    1
    53    24    52    1
    54    25    53    1
    55    25    54    1
    56    26    27    1
@<TRIPOS>SUBSTRUCTURE
     1 ZINC000646817380        1 TEMP              0 ****  ****    0 ROOT


##########                                Name:    ZINC001217683559
##########                DOCK_Rotatable_Bonds:                   3
##########                         Heavy_Atoms:                  25
##########                    Molecular_Weight:             397.234
##########                DOCK_Rotatable_Bonds:                   3
##########                       Formal_Charge:          0.00999987
##########                     HBond_Acceptors:                   7
##########                        HBond_Donors:                   0
##########                         Heavy_Atoms:                  25
##########                          Grid_Score:          -29.131618
##########                     Grid_vdw_energy:          -28.214743
##########                      Grid_es_energy:           -0.916876
##########           Internal_energy_repulsive:            6.120182

@<TRIPOS>MOLECULE
ZINC001217683559
 38 42 1 0 0
SMALL
USER_CHARGES


@<TRIPOS>ATOM
      1 Br1        -4.5570    4.5866   51.7621 Br      1  ZINC001217683559    0.0100
      2 C2         -3.7596    3.8915   53.3295 C.ar    1  ZINC001217683559   -0.1200
      3 C3         -4.4347    3.9322   54.5390 C.ar    1  ZINC001217683559   -0.0500
      4 C4         -3.8110    3.4106   55.6627 C.ar    1  ZINC001217683559   -0.1500
      5 C5         -2.5435    2.8692   55.5451 C.ar    1  ZINC001217683559    0.1200
      6 N6         -1.9240    2.8435   54.3831 N.ar    1  ZINC001217683559   -0.4400
      7 C7         -2.4870    3.3256   53.2837 C.ar    1  ZINC001217683559    0.2200
      8 C8         -1.7499    3.2748   51.9958 C.2     1  ZINC001217683559    0.2100
      9 N9         -0.6127    3.8643   51.7304 N.2     1  ZINC001217683559   -0.3300
     10 O10        -0.2717    3.6293   50.5905 O.3     1  ZINC001217683559    0.1000
     11 C11        -1.1817    2.8434   49.9940 C.2     1  ZINC001217683559    0.2300
     12 C12        -1.1323    2.3349   48.6077 C.2     1  ZINC001217683559   -0.0600
     13 C13        -0.0736    2.6463   47.8022 C.2     1  ZINC001217683559    0.1800
     14 N14        -0.0205    2.1838   46.5285 N.pl3   1  ZINC001217683559   -0.2900
     15 N15         0.9143    2.3339   45.4940 N.2     1  ZINC001217683559   -0.3300
     16 C16         0.4576    1.6651   44.4618 C.2     1  ZINC001217683559    0.2800
     17 C17         1.1466    1.5529   43.1262 C.3     1  ZINC001217683559   -0.0300
     18 C18         1.3293    2.9025   42.4120 C.3     1  ZINC001217683559   -0.1200
     19 C19         2.7215    2.4024   41.9916 C.3     1  ZINC001217683559   -0.1400
     20 C20         2.6798    1.4883   43.2276 C.3     1  ZINC001217683559   -0.1200
     21 N21        -0.7018    1.1023   44.7727 N.2     1  ZINC001217683559   -0.5300
     22 C22        -1.0216    1.3996   46.0266 C.2     1  ZINC001217683559    0.2900
     23 C23        -2.1242    1.0634   46.8360 C.2     1  ZINC001217683559   -0.1000
     24 C24        -2.1785    1.5201   48.1143 C.2     1  ZINC001217683559   -0.0200
     25 N25        -2.1267    2.6073   50.8853 N.2     1  ZINC001217683559   -0.4300
     26 H26        -5.4238    4.3607   54.6052 H       1  ZINC001217683559    0.1600
     27 H27        -4.3099    3.4274   56.6204 H       1  ZINC001217683559    0.1500
     28 H28        -2.0551    2.4622   56.4182 H       1  ZINC001217683559    0.1800
     29 H29         0.7259    3.2649   48.1821 H       1  ZINC001217683559    0.1900
     30 H30         0.7180    0.7765   42.4927 H       1  ZINC001217683559    0.1200
     31 H31         0.6469    3.0492   41.5747 H       1  ZINC001217683559    0.0700
     32 H32         1.3581    3.7551   43.0903 H       1  ZINC001217683559    0.1000
     33 H33         2.7234    1.8591   41.0466 H       1  ZINC001217683559    0.0800
     34 H34         3.4944    3.1693   42.0417 H       1  ZINC001217683559    0.0800
     35 H35         3.0778    1.9544   44.1290 H       1  ZINC001217683559    0.0900
     36 H36         3.0877    0.4934   43.0489 H       1  ZINC001217683559    0.0700
     37 H37        -2.9181    0.4445   46.4449 H       1  ZINC001217683559    0.1700
     38 H38        -3.0179    1.2703   48.7462 H       1  ZINC001217683559    0.1700
@<TRIPOS>BOND
     1     1     2    1
     2     2     7   ar
     3     2     3   ar
     4     3     4   ar
     5     3    26    1
     6     4     5   ar
     7     4    27    1
     8     5     6   ar
     9     5    28    1
    10     6     7   ar
    11     7     8    1
    12     8    25    1
    13     8     9    2
    14     9    10    1
    15    10    11    1
    16    11    12    1
    17    11    25    2
    18    12    24    1
    19    12    13    2
    20    13    14    1
    21    13    29    1
    22    14    22    1
    23    14    15    1
    24    15    16    2
    25    16    17    1
    26    16    21    1
    27    17    20    1
    28    17    18    1
    29    17    30    1
    30    18    19    1
    31    18    31    1
    32    18    32    1
    33    19    20    1
    34    19    33    1
    35    19    34    1
    36    20    35    1
    37    20    36    1
    38    21    22    2
    39    22    23    1
    40    23    24    2
    41    23    37    1
    42    24    38    1
@<TRIPOS>SUBSTRUCTURE
     1 ZINC001217683559        1 TEMP              0 ****  ****    0 ROOT


##########                                Name:    ZINC000151303733
##########                DOCK_Rotatable_Bonds:                   7
##########                         Heavy_Atoms:                  26
##########                    Molecular_Weight:             369.444
##########                DOCK_Rotatable_Bonds:                   7
##########                       Formal_Charge:        -1.93715e-07
##########                     HBond_Acceptors:                   7
##########                        HBond_Donors:                   2
##########                         Heavy_Atoms:                  26
##########                          Grid_Score:          -29.130243
##########                     Grid_vdw_energy:          -27.295013
##########                      Grid_es_energy:           -1.835231
##########           Internal_energy_repulsive:           60.488914

@<TRIPOS>MOLECULE
ZINC000151303733
 45 48 1 0 0
SMALL
USER_CHARGES


@<TRIPOS>ATOM
      1 C1         -7.8899    5.8167   53.6448 C.3     1  ZINC000151303733   -0.1000
      2 C2         -7.4884    6.6894   52.4837 C.2     1  ZINC000151303733   -0.1200
      3 C3         -8.1492    7.8015   52.1598 C.2     1  ZINC000151303733   -0.2000
      4 S4         -7.3962    8.5523   50.7591 S.3     1  ZINC000151303733    0.1200
      5 C5         -6.1871    7.2773   50.6855 C.2     1  ZINC000151303733   -0.2400
      6 C6         -6.3992    6.4001   51.6735 C.2     1  ZINC000151303733    0.1200
      7 N7         -5.5872    5.2676   51.8697 N.am    1  ZINC000151303733   -0.6400
      8 C8         -4.5472    5.0330   51.0453 C.2     1  ZINC000151303733    0.5100
      9 O9         -4.3110    5.7981   50.1340 O.2     1  ZINC000151303733   -0.5100
     10 C10        -3.6777    3.8202   51.2555 C.3     1  ZINC000151303733    0.1000
     11 N11        -3.1572    3.3629   49.9646 N.am    1  ZINC000151303733   -0.7100
     12 C12        -1.9666    2.7343   49.9026 C.2     1  ZINC000151303733    0.5200
     13 O13        -1.3256    2.5484   50.9152 O.2     1  ZINC000151303733   -0.5100
     14 C14        -1.4321    2.2623   48.5750 C.3     1  ZINC000151303733    0.1600
     15 H15        -1.9694    2.7488   47.7609 H       1  ZINC000151303733    0.1300
     16 C16        -1.5688    0.7644   48.4641 C.ar    1  ZINC000151303733   -0.0900
     17 C17        -2.6484   -0.0874   48.4860 C.ar    1  ZINC000151303733   -0.0900
     18 C18        -2.4547   -1.4530   48.3585 C.ar    1  ZINC000151303733   -0.0800
     19 C19        -1.1776   -1.9635   48.2090 C.ar    1  ZINC000151303733   -0.1200
     20 C20        -0.0877   -1.1177   48.1858 C.ar    1  ZINC000151303733   -0.0400
     21 C21        -0.2748    0.2596   48.3137 C.ar    1  ZINC000151303733   -0.1500
     22 C22         0.6686    1.3939   48.3264 C.2     1  ZINC000151303733    0.5600
     23 O23         1.8751    1.2953   48.2163 O.2     1  ZINC000151303733   -0.5100
     24 N24         0.0028    2.5533   48.4770 N.am    1  ZINC000151303733   -0.5700
     25 C25         0.6106    3.8851   48.5341 C.3     1  ZINC000151303733    0.0900
     26 C26         1.2115    4.4433   47.2424 C.3     1  ZINC000151303733   -0.1800
     27 C27        -0.0977    5.0174   47.7877 C.3     1  ZINC000151303733   -0.1900
     28 H28        -7.3787    6.1538   54.5466 H       1  ZINC000151303733    0.0700
     29 H29        -8.9679    5.8815   53.7924 H       1  ZINC000151303733    0.0700
     30 H30        -7.6134    4.7833   53.4353 H       1  ZINC000151303733    0.0600
     31 H31        -9.0161    8.1831   52.6787 H       1  ZINC000151303733    0.1700
     32 H32        -5.3924    7.2143   49.9568 H       1  ZINC000151303733    0.2000
     33 H33        -5.7762    4.6558   52.5983 H       1  ZINC000151303733    0.4200
     34 H34        -2.8465    4.0784   51.9115 H       1  ZINC000151303733    0.1100
     35 H35        -4.2673    3.0251   51.7117 H       1  ZINC000151303733    0.1100
     36 H36        -3.6694    3.5127   49.1546 H       1  ZINC000151303733    0.4100
     37 H37        -3.6465    0.3081   48.6029 H       1  ZINC000151303733    0.1300
     38 H38        -3.3030   -2.1211   48.3761 H       1  ZINC000151303733    0.1400
     39 H39        -1.0331   -3.0292   48.1104 H       1  ZINC000151303733    0.1400
     40 H40         0.9077   -1.5203   48.0686 H       1  ZINC000151303733    0.1400
     41 H41         1.1096    4.1344   49.4705 H       1  ZINC000151303733    0.1400
     42 H42         2.1062    5.0599   47.3290 H       1  ZINC000151303733    0.1000
     43 H43         1.1547    3.8196   46.3503 H       1  ZINC000151303733    0.1300
     44 H44        -1.0159    4.7715   47.2543 H       1  ZINC000151303733    0.1000
     45 H45        -0.0643    6.0118   48.2329 H       1  ZINC000151303733    0.1000
@<TRIPOS>BOND
     1     1     2    1
     2     1    28    1
     3     1    29    1
     4     1    30    1
     5     2     6    1
     6     2     3    2
     7     3     4    1
     8     3    31    1
     9     4     5    1
    10     5     6    2
    11     5    32    1
    12     6     7    1
    13     7     8   am
    14     7    33    1
    15     8     9    2
    16     8    10    1
    17    10    11    1
    18    10    34    1
    19    10    35    1
    20    11    12   am
    21    11    36    1
    22    12    13    2
    23    12    14    1
    24    14    15    1
    25    14    24    1
    26    14    16    1
    27    16    21   ar
    28    16    17   ar
    29    17    18   ar
    30    17    37    1
    31    18    19   ar
    32    18    38    1
    33    19    20   ar
    34    19    39    1
    35    20    21   ar
    36    20    40    1
    37    21    22    1
    38    22    23    2
    39    22    24   am
    40    24    25    1
    41    25    27    1
    42    25    26    1
    43    25    41    1
    44    26    27    1
    45    26    42    1
    46    26    43    1
    47    27    44    1
    48    27    45    1
@<TRIPOS>SUBSTRUCTURE
     1 ZINC000151303733        1 TEMP              0 ****  ****    0 ROOT


##########                                Name:    ZINC001310073555
##########                DOCK_Rotatable_Bonds:                  12
##########                         Heavy_Atoms:                  27
##########                    Molecular_Weight:             380.484
##########                DOCK_Rotatable_Bonds:                  12
##########                       Formal_Charge:          0.00999888
##########                     HBond_Acceptors:                   7
##########                        HBond_Donors:                   2
##########                         Heavy_Atoms:                  27
##########                          Grid_Score:          -29.122547
##########                     Grid_vdw_energy:          -27.563250
##########                      Grid_es_energy:           -1.559297
##########           Internal_energy_repulsive:           39.366455

@<TRIPOS>MOLECULE
ZINC001310073555
 59 59 1 0 0
SMALL
USER_CHARGES


@<TRIPOS>ATOM
      1 C1        -11.7386    3.7237   53.1347 C.3     1  ZINC001310073555   -0.1600
      2 C2        -10.2260    3.4981   53.0918 C.3     1  ZINC001310073555   -0.1100
      3 C3         -9.8838    2.1958   53.8183 C.3     1  ZINC001310073555   -0.0600
      4 C4         -8.4211    2.2306   54.2658 C.3     1  ZINC001310073555   -0.1100
      5 C5         -7.5141    2.3247   53.0372 C.3     1  ZINC001310073555   -0.1600
      6 C6        -10.7882    2.0420   55.0427 C.3     1  ZINC001310073555    0.1600
      7 N7        -10.2765    0.9665   55.8957 N.am    1  ZINC001310073555   -0.7400
      8 C8        -10.0664    1.1896   57.2082 C.2     1  ZINC001310073555    0.7100
      9 O9        -10.3029    2.2831   57.6846 O.2     1  ZINC001310073555   -0.5700
     10 N10        -9.5941    0.2006   57.9927 N.am    1  ZINC001310073555   -0.6700
     11 C11        -9.3752    0.4329   59.3597 C.ar    1  ZINC001310073555    0.1000
     12 C12        -8.3180    1.2319   59.7671 C.ar    1  ZINC001310073555   -0.0400
     13 C13        -8.1023    1.4606   61.1132 C.ar    1  ZINC001310073555   -0.2200
     14 C14        -8.9426    0.8923   62.0588 C.ar    1  ZINC001310073555    0.1500
     15 O15        -8.7278    1.1193   63.3821 O.3     1  ZINC001310073555   -0.3200
     16 C16        -7.6411    0.4201   63.9922 C.3     1  ZINC001310073555    0.0300
     17 C17       -10.0023    0.0929   61.6558 C.ar    1  ZINC001310073555   -0.2300
     18 C18       -10.2234   -0.1345   60.3079 C.ar    1  ZINC001310073555    0.1400
     19 O19       -11.2617   -0.9179   59.9109 O.3     1  ZINC001310073555   -0.3100
     20 C20       -11.0738   -2.3323   59.9886 C.3     1  ZINC001310073555    0.0300
     21 C21       -10.0965    1.0302   52.8870 C.2     1  ZINC001310073555    0.4800
     22 O22       -10.5704    1.2119   51.7904 O.2     1  ZINC001310073555   -0.5000
     23 O23        -9.7595   -0.2096   53.2755 O.3     1  ZINC001310073555   -0.3400
     24 C24       -10.7470   -1.2548   53.0741 C.3     1  ZINC001310073555    0.1200
     25 C25       -10.4600   -2.4178   54.0259 C.3     1  ZINC001310073555   -0.1800
     26 C26       -12.1439   -0.6977   53.3561 C.3     1  ZINC001310073555   -0.1400
     27 C27       -10.6779   -1.7501   51.6282 C.3     1  ZINC001310073555   -0.1800
     28 H28       -11.9824    4.6515   52.6171 H       1  ZINC001310073555    0.0600
     29 H29       -12.2442    2.8912   52.6454 H       1  ZINC001310073555    0.0500
     30 H30       -12.0670    3.7892   54.1720 H       1  ZINC001310073555    0.0600
     31 H31        -9.8976    3.4327   52.0545 H       1  ZINC001310073555    0.0800
     32 H32        -9.7205    4.3307   53.5811 H       1  ZINC001310073555    0.0800
     33 H33        -8.2574    3.0977   54.9056 H       1  ZINC001310073555    0.0800
     34 H34        -8.1890    1.3211   54.8199 H       1  ZINC001310073555    0.0800
     35 H35        -7.6779    1.4576   52.3974 H       1  ZINC001310073555    0.0600
     36 H36        -7.7462    3.2342   52.4830 H       1  ZINC001310073555    0.0500
     37 H37        -6.4720    2.3495   53.3559 H       1  ZINC001310073555    0.0600
     38 H38       -10.8013    2.9761   55.6043 H       1  ZINC001310073555    0.0800
     39 H39       -11.8000    1.7986   54.7187 H       1  ZINC001310073555    0.0800
     40 H40       -10.0890    0.0938   55.5160 H       1  ZINC001310073555    0.4000
     41 H41        -9.4054   -0.6717   57.6127 H       1  ZINC001310073555    0.4100
     42 H42        -7.6624    1.6754   59.0324 H       1  ZINC001310073555    0.1500
     43 H43        -7.2779    2.0827   61.4290 H       1  ZINC001310073555    0.1300
     44 H44        -7.8037   -0.6540   63.9019 H       1  ZINC001310073555    0.0600
     45 H45        -6.7100    0.6898   63.4939 H       1  ZINC001310073555    0.0600
     46 H46        -7.5809    0.6911   65.0462 H       1  ZINC001310073555    0.1000
     47 H47       -10.6561   -0.3493   62.3928 H       1  ZINC001310073555    0.1400
     48 H48       -11.9754   -2.8381   59.6431 H       1  ZINC001310073555    0.1000
     49 H49       -10.2314   -2.6220   59.3604 H       1  ZINC001310073555    0.0600
     50 H50       -10.8712   -2.6158   61.0214 H       1  ZINC001310073555    0.0600
     51 H51       -10.5093   -2.0650   55.0560 H       1  ZINC001310073555    0.0600
     52 H52       -11.2014   -3.2024   53.8748 H       1  ZINC001310073555    0.0700
     53 H53        -9.4648   -2.8147   53.8249 H       1  ZINC001310073555    0.0800
     54 H54       -12.3483    0.1307   52.6781 H       1  ZINC001310073555    0.0700
     55 H55       -12.8852   -1.4824   53.2050 H       1  ZINC001310073555    0.0800
     56 H56       -12.1932   -0.3449   54.3863 H       1  ZINC001310073555    0.0700
     57 H57        -9.6827   -2.1469   51.4272 H       1  ZINC001310073555    0.0800
     58 H58       -11.4193   -2.5347   51.4770 H       1  ZINC001310073555    0.0700
     59 H59       -10.8824   -0.9215   50.9501 H       1  ZINC001310073555    0.0600
@<TRIPOS>BOND
     1     1     2    1
     2     1    28    1
     3     1    29    1
     4     1    30    1
     5     2     3    1
     6     2    31    1
     7     2    32    1
     8     3     4    1
     9     3     6    1
    10     3    21    1
    11     4     5    1
    12     4    33    1
    13     4    34    1
    14     5    35    1
    15     5    36    1
    16     5    37    1
    17     6     7    1
    18     6    38    1
    19     6    39    1
    20     7     8   am
    21     7    40    1
    22     8     9    2
    23     8    10   am
    24    10    11    1
    25    10    41    1
    26    11    18   ar
    27    11    12   ar
    28    12    13   ar
    29    12    42    1
    30    13    14   ar
    31    13    43    1
    32    14    15    1
    33    14    17   ar
    34    15    16    1
    35    16    44    1
    36    16    45    1
    37    16    46    1
    38    17    18   ar
    39    17    47    1
    40    18    19    1
    41    19    20    1
    42    20    48    1
    43    20    49    1
    44    20    50    1
    45    21    22    2
    46    21    23    1
    47    23    24    1
    48    24    25    1
    49    24    26    1
    50    24    27    1
    51    25    51    1
    52    25    52    1
    53    25    53    1
    54    26    54    1
    55    26    55    1
    56    26    56    1
    57    27    57    1
    58    27    58    1
    59    27    59    1
@<TRIPOS>SUBSTRUCTURE
     1 ZINC001310073555        1 TEMP              0 ****  ****    0 ROOT


##########                                Name:    ZINC000840464592
##########                DOCK_Rotatable_Bonds:                  10
##########                         Heavy_Atoms:                  26
##########                    Molecular_Weight:             360.497
##########                DOCK_Rotatable_Bonds:                  10
##########                       Formal_Charge:          -0.0399996
##########                     HBond_Acceptors:                   5
##########                        HBond_Donors:                   1
##########                         Heavy_Atoms:                  26
##########                          Grid_Score:          -29.114569
##########                     Grid_vdw_energy:          -28.815119
##########                      Grid_es_energy:           -0.299450
##########           Internal_energy_repulsive:           87.291107

@<TRIPOS>MOLECULE
ZINC000840464592
 58 59 1 0 0
SMALL
USER_CHARGES


@<TRIPOS>ATOM
      1 C1          4.0840    8.5673   43.1478 C.3     1  ZINC000840464592   -0.1500
      2 C2          2.9743    7.6867   43.7259 C.3     1  ZINC000840464592   -0.1300
      3 C3          3.5761    6.7008   44.7291 C.3     1  ZINC000840464592   -0.1200
      4 C4          2.4664    5.8206   45.3076 C.3     1  ZINC000840464592   -0.1200
      5 C5          1.7876    5.0462   44.1761 C.3     1  ZINC000840464592   -0.1200
      6 C6          0.6201    4.2351   44.7419 C.3     1  ZINC000840464592    0.0600
      7 O7          1.1269    3.1640   45.5404 O.3     1  ZINC000840464592   -0.3600
      8 C8          0.7769    1.8646   45.0597 C.3     1  ZINC000840464592    0.0800
      9 H9         -0.2786    1.8498   44.7880 H       1  ZINC000840464592    0.0800
     10 C10         1.6246    1.5300   43.8308 C.3     1  ZINC000840464592   -0.1800
     11 C11         1.0320    0.8441   46.1389 C.2     1  ZINC000840464592    0.5200
     12 O12         2.0312    0.1578   46.1005 O.2     1  ZINC000840464592   -0.5000
     13 N13         0.1499    0.6942   47.1467 N.am    1  ZINC000840464592   -0.6000
     14 C14         0.4014   -0.2962   48.1905 C.3     1  ZINC000840464592    0.0900
     15 C15        -0.6751   -1.3756   48.2081 C.3     1  ZINC000840464592   -0.1600
     16 C16        -2.0366   -0.7578   48.5346 C.3     1  ZINC000840464592    0.0800
     17 N17        -2.6794   -0.3283   47.2878 N.am    1  ZINC000840464592   -0.7200
     18 C18        -2.2123    0.7353   46.6149 C.2     1  ZINC000840464592    0.5100
     19 O19        -2.7112    1.0591   45.5578 O.2     1  ZINC000840464592   -0.5200
     20 C20        -1.0541    1.5305   47.1925 C.3     1  ZINC000840464592    0.1400
     21 H21        -0.8977    2.4317   46.5998 H       1  ZINC000840464592    0.1300
     22 C22        -1.3675    1.9160   48.6396 C.3     1  ZINC000840464592   -0.1000
     23 C23        -1.1165    3.3893   48.8326 C.ar    1  ZINC000840464592   -0.0900
     24 C24         0.1404    3.9133   48.5949 C.ar    1  ZINC000840464592   -0.1100
     25 C25         0.3707    5.2648   48.7719 C.ar    1  ZINC000840464592   -0.1200
     26 C26        -0.6561    6.0923   49.1862 C.ar    1  ZINC000840464592   -0.1200
     27 C27        -1.9132    5.5686   49.4230 C.ar    1  ZINC000840464592   -0.1200
     28 C28        -2.1445    4.2178   49.2419 C.ar    1  ZINC000840464592   -0.1100
     29 H29         4.8200    7.9406   42.6444 H       1  ZINC000840464592    0.0500
     30 H30         3.6552    9.2697   42.4331 H       1  ZINC000840464592    0.0500
     31 H31         4.5671    9.1190   43.9542 H       1  ZINC000840464592    0.0500
     32 H32         2.2382    8.3135   44.2292 H       1  ZINC000840464592    0.0600
     33 H33         2.4911    7.1349   42.9195 H       1  ZINC000840464592    0.0600
     34 H34         4.3119    6.0737   44.2257 H       1  ZINC000840464592    0.0600
     35 H35         4.0596    7.2525   45.5353 H       1  ZINC000840464592    0.0600
     36 H36         2.8952    5.1181   46.0223 H       1  ZINC000840464592    0.0600
     37 H37         1.7306    6.4475   45.8112 H       1  ZINC000840464592    0.0600
     38 H38         1.4148    5.7469   43.4289 H       1  ZINC000840464592    0.0700
     39 H39         2.5083    4.3716   43.7140 H       1  ZINC000840464592    0.0700
     40 H40        -0.0070    4.8811   45.3562 H       1  ZINC000840464592    0.0500
     41 H41         0.0288    3.8284   43.9214 H       1  ZINC000840464592    0.0500
     42 H42         1.4089    0.5119   43.5069 H       1  ZINC000840464592    0.0800
     43 H43         1.3876    2.2255   43.0256 H       1  ZINC000840464592    0.0700
     44 H44         2.6813    1.6143   44.0845 H       1  ZINC000840464592    0.0800
     45 H45         1.3704   -0.7626   48.0129 H       1  ZINC000840464592    0.1000
     46 H46         0.4202    0.2037   49.1589 H       1  ZINC000840464592    0.0800
     47 H47        -0.7213   -1.8557   47.2305 H       1  ZINC000840464592    0.0800
     48 H48        -0.4266   -2.1215   48.9631 H       1  ZINC000840464592    0.1000
     49 H49        -2.6633   -1.4985   49.0314 H       1  ZINC000840464592    0.0900
     50 H50        -1.8988    0.1029   49.1890 H       1  ZINC000840464592    0.1000
     51 H51        -3.4459   -0.8157   46.9475 H       1  ZINC000840464592    0.4000
     52 H52        -2.4123    1.6939   48.8568 H       1  ZINC000840464592    0.0900
     53 H53        -0.7274    1.3470   49.3139 H       1  ZINC000840464592    0.1000
     54 H54         0.9427    3.2667   48.2712 H       1  ZINC000840464592    0.1200
     55 H55         1.3529    5.6740   48.5868 H       1  ZINC000840464592    0.1200
     56 H56        -0.4760    7.1482   49.3251 H       1  ZINC000840464592    0.1200
     57 H57        -2.7153    6.2152   49.7471 H       1  ZINC000840464592    0.1200
     58 H58        -3.1267    3.8086   49.4270 H       1  ZINC000840464592    0.1200
@<TRIPOS>BOND
     1     1     2    1
     2     1    29    1
     3     1    30    1
     4     1    31    1
     5     2     3    1
     6     2    32    1
     7     2    33    1
     8     3     4    1
     9     3    34    1
    10     3    35    1
    11     4     5    1
    12     4    36    1
    13     4    37    1
    14     5     6    1
    15     5    38    1
    16     5    39    1
    17     6     7    1
    18     6    40    1
    19     6    41    1
    20     7     8    1
    21     8     9    1
    22     8    10    1
    23     8    11    1
    24    10    42    1
    25    10    43    1
    26    10    44    1
    27    11    12    2
    28    11    13   am
    29    13    20    1
    30    13    14    1
    31    14    15    1
    32    14    45    1
    33    14    46    1
    34    15    16    1
    35    15    47    1
    36    15    48    1
    37    16    17    1
    38    16    49    1
    39    16    50    1
    40    17    18   am
    41    17    51    1
    42    18    19    2
    43    18    20    1
    44    20    21    1
    45    20    22    1
    46    22    23    1
    47    22    52    1
    48    22    53    1
    49    23    28   ar
    50    23    24   ar
    51    24    25   ar
    52    24    54    1
    53    25    26   ar
    54    25    55    1
    55    26    27   ar
    56    26    56    1
    57    27    28   ar
    58    27    57    1
    59    28    58    1
@<TRIPOS>SUBSTRUCTURE
     1 ZINC000840464592        1 TEMP              0 ****  ****    0 ROOT


##########                                Name:    ZINC000962730513
##########                DOCK_Rotatable_Bonds:                   6
##########                         Heavy_Atoms:                  24
##########                    Molecular_Weight:             342.465
##########                DOCK_Rotatable_Bonds:                   6
##########                       Formal_Charge:         -0.00999998
##########                     HBond_Acceptors:                   6
##########                        HBond_Donors:                   1
##########                         Heavy_Atoms:                  24
##########                          Grid_Score:          -29.113701
##########                     Grid_vdw_energy:          -29.225103
##########                      Grid_es_energy:            0.111403
##########           Internal_energy_repulsive:           13.223462

@<TRIPOS>MOLECULE
ZINC000962730513
 46 49 1 0 0
SMALL
USER_CHARGES


@<TRIPOS>ATOM
      1 C1        -11.5783    1.8716   61.9481 C.3     1  ZINC000962730513   -0.1400
      2 C2        -11.4335    0.8577   63.0848 C.3     1  ZINC000962730513   -0.0800
      3 C3         -9.9718    0.5931   63.3387 C.2     1  ZINC000962730513   -0.0100
      4 C4         -9.1978   -0.1882   62.5275 C.2     1  ZINC000962730513   -0.2800
      5 C5         -9.6574   -0.8723   61.3153 C.2     1  ZINC000962730513    0.6000
      6 O6         -8.9498   -0.8976   60.3254 O.2     1  ZINC000962730513   -0.5200
      7 N7        -10.8636   -1.4732   61.2970 N.am    1  ZINC000962730513   -0.7000
      8 C8        -11.3237   -2.1554   60.0848 C.3     1  ZINC000962730513    0.1200
      9 H9        -10.6850   -2.9643   59.7302 H       1  ZINC000962730513    0.1400
     10 C10       -12.0436   -1.3116   59.0310 C.3     1  ZINC000962730513   -0.1700
     11 H11       -12.1335   -0.2348   59.1746 H       1  ZINC000962730513    0.1200
     12 C12       -12.1008   -1.8475   57.5844 C.3     1  ZINC000962730513    0.0700
     13 N13       -13.3098   -2.7102   57.5522 N.3     1  ZINC000962730513   -0.5000
     14 C14       -13.2439   -3.6678   56.4402 C.3     1  ZINC000962730513    0.1100
     15 C15       -12.5963   -3.0105   55.2488 C.ar    1  ZINC000962730513    0.3200
     16 N16       -13.2748   -2.1109   54.5651 N.ar    1  ZINC000962730513   -0.5100
     17 C17       -12.7387   -1.5129   53.5133 C.ar    1  ZINC000962730513    0.1500
     18 C18       -11.4473   -1.8442   53.1348 C.ar    1  ZINC000962730513   -0.1900
     19 C19       -10.7996   -1.1865   51.9437 C.3     1  ZINC000962730513   -0.1100
     20 C20       -10.7658   -2.7947   53.8784 C.ar    1  ZINC000962730513    0.1500
     21 N21       -11.3648   -3.3467   54.9214 N.ar    1  ZINC000962730513   -0.5000
     22 C22       -13.2920   -3.4124   58.8613 C.3     1  ZINC000962730513    0.0700
     23 C23       -12.8336   -2.3140   59.8951 C.3     1  ZINC000962730513   -0.1700
     24 H24       -13.5466   -2.0143   60.6630 H       1  ZINC000962730513    0.1300
     25 S25        -7.5622   -0.2410   63.1706 S.3     1  ZINC000962730513    0.1900
     26 C26        -7.9922    0.7717   64.4747 C.2     1  ZINC000962730513   -0.2200
     27 C27        -9.2830    1.1182   64.4061 C.2     1  ZINC000962730513   -0.1500
     28 H28       -11.0837    2.8023   62.2262 H       1  ZINC000962730513    0.0600
     29 H29       -11.1189    1.4720   61.0441 H       1  ZINC000962730513    0.0500
     30 H30       -12.6355    2.0629   61.7644 H       1  ZINC000962730513    0.0600
     31 H31       -11.8929    1.2573   63.9888 H       1  ZINC000962730513    0.1000
     32 H32       -11.9282   -0.0729   62.8067 H       1  ZINC000962730513    0.0700
     33 H33       -11.4271   -1.4540   62.0863 H       1  ZINC000962730513    0.4000
     34 H34       -12.2027   -1.0239   56.8776 H       1  ZINC000962730513    0.0900
     35 H35       -11.2095   -2.4336   57.3605 H       1  ZINC000962730513    0.0500
     36 H36       -12.6554   -4.5345   56.7415 H       1  ZINC000962730513    0.1000
     37 H37       -14.2518   -3.9873   56.1757 H       1  ZINC000962730513    0.0700
     38 H38       -13.3002   -0.7767   52.9573 H       1  ZINC000962730513    0.1700
     39 H39       -10.2747   -0.2873   52.2660 H       1  ZINC000962730513    0.0800
     40 H40       -10.0904   -1.8776   51.4881 H       1  ZINC000962730513    0.0700
     41 H41       -11.5652   -0.9190   51.2154 H       1  ZINC000962730513    0.0700
     42 H42        -9.7582   -3.0782   53.6126 H       1  ZINC000962730513    0.1700
     43 H43       -14.2906   -3.7671   59.1160 H       1  ZINC000962730513    0.0800
     44 H44       -12.5871   -4.2434   58.8373 H       1  ZINC000962730513    0.0600
     45 H45        -7.3125    1.0935   65.2498 H       1  ZINC000962730513    0.1700
     46 H46        -9.7512    1.7571   65.1402 H       1  ZINC000962730513    0.1500
@<TRIPOS>BOND
     1     1     2    1
     2     1    28    1
     3     1    29    1
     4     1    30    1
     5     2     3    1
     6     2    31    1
     7     2    32    1
     8     3    27    1
     9     3     4    2
    10     4     5    1
    11     4    25    1
    12     5     6    2
    13     5     7   am
    14     7     8    1
    15     7    33    1
    16     8     9    1
    17     8    23    1
    18     8    10    1
    19    10    11    1
    20    10    23    1
    21    10    12    1
    22    12    13    1
    23    12    34    1
    24    12    35    1
    25    13    14    1
    26    13    22    1
    27    14    15    1
    28    14    36    1
    29    14    37    1
    30    15    21   ar
    31    15    16   ar
    32    16    17   ar
    33    17    18   ar
    34    17    38    1
    35    18    19    1
    36    18    20   ar
    37    19    39    1
    38    19    40    1
    39    19    41    1
    40    20    21   ar
    41    20    42    1
    42    22    23    1
    43    22    43    1
    44    22    44    1
    45    23    24    1
    46    25    26    1
    47    26    27    2
    48    26    45    1
    49    27    46    1
@<TRIPOS>SUBSTRUCTURE
     1 ZINC000962730513        1 TEMP              0 ****  ****    0 ROOT


##########                                Name:    ZINC000611836474
##########                DOCK_Rotatable_Bonds:                   7
##########                         Heavy_Atoms:                  22
##########                    Molecular_Weight:             366.258
##########                DOCK_Rotatable_Bonds:                   7
##########                       Formal_Charge:          -0.0300004
##########                     HBond_Acceptors:                   5
##########                        HBond_Donors:                   1
##########                         Heavy_Atoms:                  22
##########                          Grid_Score:          -29.108829
##########                     Grid_vdw_energy:          -29.302135
##########                      Grid_es_energy:            0.193305
##########           Internal_energy_repulsive:            6.948282

@<TRIPOS>MOLECULE
ZINC000611836474
 42 43 1 0 0
SMALL
USER_CHARGES


@<TRIPOS>ATOM
      1 C1         -8.1564   -0.7247   61.7557 C.3     1  ZINC000611836474   -0.1500
      2 C2         -9.5849   -1.1015   62.1542 C.3     1  ZINC000611836474   -0.1400
      3 C3        -10.4466   -1.2351   60.8971 C.3     1  ZINC000611836474    0.1300
      4 N4        -11.8083   -1.6194   61.2770 N.pl3   1  ZINC000611836474   -0.3900
      5 N5        -12.3842   -1.4673   62.5448 N.2     1  ZINC000611836474   -0.2900
      6 C6        -13.6098   -1.9231   62.4983 C.2     1  ZINC000611836474    0.0600
      7 C7        -13.8594   -2.3814   61.2019 C.2     1  ZINC000611836474   -0.2800
      8 C8        -12.7336   -2.1784   60.4642 C.2     1  ZINC000611836474    0.3000
      9 N9        -12.5625   -2.4966   59.1171 N.am    1  ZINC000611836474   -0.6500
     10 C10       -13.2645   -1.8369   58.1744 C.2     1  ZINC000611836474    0.5200
     11 O11       -14.0438   -0.9654   58.4974 O.2     1  ZINC000611836474   -0.4700
     12 C12       -13.0809   -2.1820   56.7190 C.3     1  ZINC000611836474    0.0700
     13 H13       -13.4336   -1.3553   56.1023 H       1  ZINC000611836474    0.1100
     14 C14       -13.8822   -3.4427   56.3887 C.3     1  ZINC000611836474   -0.1800
     15 O15       -11.6959   -2.4154   56.4558 O.3     1  ZINC000611836474   -0.2700
     16 C16       -11.1777   -1.8521   55.3327 C.ar    1  ZINC000611836474    0.1500
     17 C17       -11.1483   -2.5691   54.1460 C.ar    1  ZINC000611836474   -0.2000
     18 C18       -10.6209   -1.9944   53.0054 C.ar    1  ZINC000611836474   -0.0600
     19 C19       -10.1222   -0.7057   53.0461 C.ar    1  ZINC000611836474   -0.1100
     20 C20        -9.5472   -0.0819   51.8006 C.3     1  ZINC000611836474   -0.1100
     21 C21       -10.1504    0.0122   54.2277 C.ar    1  ZINC000611836474   -0.0500
     22 C22       -10.6820   -0.5558   55.3699 C.ar    1  ZINC000611836474   -0.1200
     23 Br23      -10.7204    0.4261   56.9855 Br      1  ZINC000611836474   -0.0300
     24 H24        -7.5426   -0.6295   62.6513 H       1  ZINC000611836474    0.0600
     25 H25        -7.7422   -1.5007   61.1120 H       1  ZINC000611836474    0.0600
     26 H26        -8.1672    0.2245   61.2199 H       1  ZINC000611836474    0.0600
     27 H27        -9.5741   -2.0506   62.6900 H       1  ZINC000611836474    0.0800
     28 H28        -9.9991   -0.3255   62.7979 H       1  ZINC000611836474    0.0600
     29 H29       -10.4719   -0.2809   60.3707 H       1  ZINC000611836474    0.0800
     30 H30       -10.0221   -1.9986   60.2450 H       1  ZINC000611836474    0.1000
     31 H31       -14.3089   -1.9425   63.3213 H       1  ZINC000611836474    0.1900
     32 H32       -14.7823   -2.8159   60.8474 H       1  ZINC000611836474    0.1700
     33 H33       -11.9383   -3.1927   58.8586 H       1  ZINC000611836474    0.4100
     34 H34       -14.9387   -3.2647   56.5894 H       1  ZINC000611836474    0.0800
     35 H35       -13.7494   -3.6922   55.3360 H       1  ZINC000611836474    0.0800
     36 H36       -13.5295   -4.2694   57.0053 H       1  ZINC000611836474    0.0800
     37 H37       -11.5370   -3.5763   54.1135 H       1  ZINC000611836474    0.1400
     38 H38       -10.5980   -2.5527   52.0812 H       1  ZINC000611836474    0.1300
     39 H39       -10.3369    0.4354   51.2556 H       1  ZINC000611836474    0.0700
     40 H40        -8.7696    0.6301   52.0766 H       1  ZINC000611836474    0.0700
     41 H41        -9.1195   -0.8603   51.1687 H       1  ZINC000611836474    0.0700
     42 H42        -9.7601    1.0188   54.2570 H       1  ZINC000611836474    0.1400
@<TRIPOS>BOND
     1     1     2    1
     2     1    24    1
     3     1    25    1
     4     1    26    1
     5     2     3    1
     6     2    27    1
     7     2    28    1
     8     3     4    1
     9     3    29    1
    10     3    30    1
    11     4     8    1
    12     4     5    1
    13     5     6    2
    14     6     7    1
    15     6    31    1
    16     7     8    2
    17     7    32    1
    18     8     9    1
    19     9    10   am
    20     9    33    1
    21    10    11    2
    22    10    12    1
    23    12    13    1
    24    12    14    1
    25    12    15    1
    26    14    34    1
    27    14    35    1
    28    14    36    1
    29    15    16    1
    30    16    22   ar
    31    16    17   ar
    32    17    18   ar
    33    17    37    1
    34    18    19   ar
    35    18    38    1
    36    19    20    1
    37    19    21   ar
    38    20    39    1
    39    20    40    1
    40    20    41    1
    41    21    22   ar
    42    21    42    1
    43    22    23    1
@<TRIPOS>SUBSTRUCTURE
     1 ZINC000611836474        1 TEMP              0 ****  ****    0 ROOT


##########                                Name:    ZINC001109404798
##########                DOCK_Rotatable_Bonds:                   7
##########                         Heavy_Atoms:                  25
##########                    Molecular_Weight:              360.48
##########                DOCK_Rotatable_Bonds:                   7
##########                       Formal_Charge:           0.0100002
##########                     HBond_Acceptors:                   7
##########                        HBond_Donors:                   1
##########                         Heavy_Atoms:                  25
##########                          Grid_Score:          -29.100103
##########                     Grid_vdw_energy:          -29.606369
##########                      Grid_es_energy:            0.506266
##########           Internal_energy_repulsive:           27.152792

@<TRIPOS>MOLECULE
ZINC001109404798
 49 52 1 0 0
SMALL
USER_CHARGES


@<TRIPOS>ATOM
      1 C1          1.9054    2.2764   41.3656 C.3     1  ZINC001109404798   -0.0600
      2 C2          1.5611    1.7445   42.7330 C.2     1  ZINC001109404798    0.1700
      3 N3          2.3268    1.0176   43.4906 N.2     1  ZINC001109404798   -0.3900
      4 O4          1.7598    0.7525   44.5296 O.3     1  ZINC001109404798    0.1000
      5 C5          0.5415    1.3018   44.5336 C.2     1  ZINC001109404798    0.1900
      6 C6         -0.4808    1.2102   45.6370 C.3     1  ZINC001109404798    0.1600
      7 H7         -0.2376    0.3712   46.2890 H       1  ZINC001109404798    0.1000
      8 C8         -1.8691    0.9983   45.0297 C.3     1  ZINC001109404798   -0.1500
      9 N9         -0.4723    2.4550   46.4170 N.3     1  ZINC001109404798   -0.4800
     10 C10         0.8775    2.6904   47.0432 C.3     1  ZINC001109404798    0.0400
     11 H11         1.7051    2.8364   46.3490 H       1  ZINC001109404798    0.1100
     12 C12         0.9936    1.4483   47.9773 C.3     1  ZINC001109404798   -0.1600
     13 C13        -0.4687    1.1853   48.4131 C.3     1  ZINC001109404798   -0.1600
     14 C14        -1.2730    2.3037   47.6841 C.3     1  ZINC001109404798    0.0400
     15 H15        -2.3376    2.1091   47.5539 H       1  ZINC001109404798    0.1200
     16 C16        -0.9169    3.6175   48.4429 C.3     1  ZINC001109404798    0.1500
     17 H17        -1.5668    4.4326   48.1246 H       1  ZINC001109404798    0.1000
     18 N18        -1.0127    3.4189   49.8911 N.am    1  ZINC001109404798   -0.7200
     19 C19        -2.1988    3.5655   50.5143 C.2     1  ZINC001109404798    0.5100
     20 O20        -3.1870    3.8603   49.8760 O.2     1  ZINC001109404798   -0.5300
     21 C21        -2.2971    3.3629   52.0045 C.3     1  ZINC001109404798   -0.1300
     22 C22        -0.9755    3.7651   52.6622 C.3     1  ZINC001109404798   -0.0400
     23 C23        -0.9941    3.3627   54.1143 C.2     1  ZINC001109404798   -0.1000
     24 C24         0.0561    2.8035   54.7173 C.2     1  ZINC001109404798   -0.2100
     25 S25        -0.3362    2.4746   56.4000 S.3     1  ZINC001109404798    0.1000
     26 C26        -1.9519    3.1347   56.1836 C.2     1  ZINC001109404798   -0.2100
     27 C27        -2.1002    3.5509   54.9250 C.2     1  ZINC001109404798   -0.1300
     28 C28         0.5650    3.8958   47.9806 C.3     1  ZINC001109404798   -0.1100
     29 N29         0.4073    1.9400   43.3958 N.2     1  ZINC001109404798   -0.4800
     30 H30         2.3782    3.2536   41.4643 H       1  ZINC001109404798    0.0900
     31 H31         2.5915    1.5892   40.8706 H       1  ZINC001109404798    0.0900
     32 H32         0.9955    2.3713   40.7731 H       1  ZINC001109404798    0.0900
     33 H33        -1.8754    0.0747   44.4510 H       1  ZINC001109404798    0.0700
     34 H34        -2.6085    0.9321   45.8279 H       1  ZINC001109404798    0.0800
     35 H35        -2.1123    1.8373   44.3777 H       1  ZINC001109404798    0.0800
     36 H36         1.3909    0.5930   47.4308 H       1  ZINC001109404798    0.0700
     37 H37         1.6167    1.6755   48.8422 H       1  ZINC001109404798    0.0800
     38 H38        -0.7962    0.1996   48.0826 H       1  ZINC001109404798    0.0700
     39 H39        -0.5703    1.2820   49.4940 H       1  ZINC001109404798    0.0800
     40 H40        -0.2227    3.1820   50.4016 H       1  ZINC001109404798    0.4000
     41 H41        -3.1034    3.9790   52.4025 H       1  ZINC001109404798    0.0900
     42 H42        -2.5035    2.3136   52.2157 H       1  ZINC001109404798    0.1000
     43 H43        -0.1505    3.2632   52.1566 H       1  ZINC001109404798    0.0800
     44 H44        -0.8455    4.8447   52.5860 H       1  ZINC001109404798    0.0800
     45 H45         1.0023    2.5855   54.2446 H       1  ZINC001109404798    0.1600
     46 H46        -2.7070    3.1977   56.9532 H       1  ZINC001109404798    0.1600
     47 H47        -3.0166    3.9938   54.5637 H       1  ZINC001109404798    0.1400
     48 H48         1.2422    3.8828   48.8346 H       1  ZINC001109404798    0.0800
     49 H49         0.6300    4.8469   47.4523 H       1  ZINC001109404798    0.0900
@<TRIPOS>BOND
     1     1     2    1
     2     1    30    1
     3     1    31    1
     4     1    32    1
     5     2    29    1
     6     2     3    2
     7     3     4    1
     8     4     5    1
     9     5     6    1
    10     5    29    2
    11     6     7    1
    12     6     8    1
    13     6     9    1
    14     8    33    1
    15     8    34    1
    16     8    35    1
    17     9    14    1
    18     9    10    1
    19    10    11    1
    20    10    28    1
    21    10    12    1
    22    12    13    1
    23    12    36    1
    24    12    37    1
    25    13    14    1
    26    13    38    1
    27    13    39    1
    28    14    15    1
    29    14    16    1
    30    16    17    1
    31    16    18    1
    32    16    28    1
    33    18    19   am
    34    18    40    1
    35    19    20    2
    36    19    21    1
    37    21    22    1
    38    21    41    1
    39    21    42    1
    40    22    23    1
    41    22    43    1
    42    22    44    1
    43    23    27    1
    44    23    24    2
    45    24    25    1
    46    24    45    1
    47    25    26    1
    48    26    27    2
    49    26    46    1
    50    27    47    1
    51    28    48    1
    52    28    49    1
@<TRIPOS>SUBSTRUCTURE
     1 ZINC001109404798        1 TEMP              0 ****  ****    0 ROOT


##########                                Name:    ZINC000006915700
##########                DOCK_Rotatable_Bonds:                   5
##########                         Heavy_Atoms:                  26
##########                    Molecular_Weight:             369.447
##########                DOCK_Rotatable_Bonds:                   5
##########                       Formal_Charge:        -1.04308e-07
##########                     HBond_Acceptors:                   8
##########                        HBond_Donors:                   1
##########                         Heavy_Atoms:                  26
##########                          Grid_Score:          -29.083611
##########                     Grid_vdw_energy:          -28.427971
##########                      Grid_es_energy:           -0.655639
##########           Internal_energy_repulsive:            4.036386

@<TRIPOS>MOLECULE
ZINC000006915700
 45 48 1 0 0
SMALL
USER_CHARGES


@<TRIPOS>ATOM
      1 C1         -6.9800    3.1795   53.6925 C.3     1  <0>        -0.1200
      2 C2         -7.4458    2.4720   54.9389 C.ar    1  <0>        -0.0500
      3 C3         -6.5194    2.0248   55.8640 C.ar    1  <0>        -0.1300
      4 C4         -6.9395    1.3767   57.0074 C.ar    1  <0>        -0.0600
      5 C5         -8.3016    1.1727   57.2294 C.ar    1  <0>        -0.0700
      6 C6         -8.7593    0.4782   58.4548 C.2     1  <0>         0.4400
      7 N7         -8.1784    0.7532   59.6153 N.2     1  <0>        -0.5200
      8 C8         -8.5811    0.1347   60.7295 C.2     1  <0>         0.3600
      9 C9         -8.1779    0.2104   62.0565 C.2     1  <0>        -0.3200
     10 C10        -8.9658   -0.6768   62.7915 C.2     1  <0>         0.5500
     11 O11        -8.8884   -0.8720   63.9935 O.2     1  <0>        -0.5200
     12 N12        -9.8267   -1.2809   61.9494 N.am    1  <0>        -0.5000
     13 N13        -9.6034   -0.7891   60.6596 N.pl3   1  <0>        -0.3300
     14 C14       -10.1806   -1.0498   59.4503 C.2     1  <0>         0.3900
     15 S15       -11.4887   -2.2238   59.3252 S.3     1  <0>         0.1200
     16 C16       -12.8736   -1.2144   59.9074 C.3     1  <0>        -0.1500
     17 C17       -14.1219   -2.0571   59.9604 C.2     1  <0>         0.5500
     18 O18       -14.3222   -2.7853   60.9093 O.2     1  <0>        -0.5200
     19 N19       -15.0156   -2.0015   58.9531 N.am    1  <0>        -0.6100
     20 C20       -16.2713   -2.7626   58.8786 C.3     1  <0>         0.0900
     21 C21       -16.9497   -2.3975   57.5414 C.3     1  <0>        -0.1300
     22 C22       -15.7661   -1.8828   56.6804 C.3     1  <0>        -0.1400
     23 C23       -14.8989   -1.1628   57.7462 C.3     1  <0>         0.1000
     24 N24        -9.7531   -0.4098   58.3732 N.2     1  <0>        -0.5600
     25 C25        -9.2306    1.6260   56.2928 C.ar    1  <0>        -0.0500
     26 C26        -8.7983    2.2774   55.1559 C.ar    1  <0>        -0.1300
     27 H27        -6.9184    4.2508   53.8843 H       1  <0>         0.0800
     28 H28        -5.9971    2.8044   53.4074 H       1  <0>         0.0700
     29 H29        -7.6878    2.9953   52.8842 H       1  <0>         0.0700
     30 H30        -5.4652    2.1830   55.6909 H       1  <0>         0.1300
     31 H31        -6.2155    1.0277   57.7287 H       1  <0>         0.1300
     32 H32        -7.3949    0.8422   62.4491 H       1  <0>         0.1800
     33 H33       -10.4898   -1.9446   62.1961 H       1  <0>         0.4400
     34 H34       -12.6509   -0.8320   60.9035 H       1  <0>         0.1400
     35 H35       -13.0275   -0.3796   59.2237 H       1  <0>         0.1400
     36 H36       -16.0593   -3.8313   58.9071 H       1  <0>         0.0800
     37 H37       -16.9205   -2.4890   59.7105 H       1  <0>         0.0800
     38 H38       -17.4035   -3.2780   57.0863 H       1  <0>         0.0900
     39 H39       -17.6911   -1.6119   57.6870 H       1  <0>         0.0800
     40 H40       -15.2239   -2.7121   56.2259 H       1  <0>         0.0800
     41 H41       -16.1114   -1.1811   55.9211 H       1  <0>         0.0900
     42 H42       -15.2846   -0.1610   57.9354 H       1  <0>         0.0800
     43 H43       -13.8598   -1.1150   57.4207 H       1  <0>         0.0800
     44 H44       -10.2865    1.4709   56.4592 H       1  <0>         0.1400
     45 H45        -9.5166    2.6290   54.4302 H       1  <0>         0.1300
@<TRIPOS>BOND
     1     1     2    1
     2     1    27    1
     3     1    28    1
     4     1    29    1
     5     2    26   ar
     6     2     3   ar
     7     3     4   ar
     8     3    30    1
     9     4     5   ar
    10     4    31    1
    11     5     6    1
    12     5    25   ar
    13     6    24    1
    14     6     7    2
    15     7     8    1
    16     8    13    1
    17     8     9    2
    18     9    10    1
    19     9    32    1
    20    10    11    2
    21    10    12   am
    22    12    13    1
    23    12    33    1
    24    13    14    1
    25    14    15    1
    26    14    24    2
    27    15    16    1
    28    16    17    1
    29    16    34    1
    30    16    35    1
    31    17    18    2
    32    17    19   am
    33    19    23    1
    34    19    20    1
    35    20    21    1
    36    20    36    1
    37    20    37    1
    38    21    22    1
    39    21    38    1
    40    21    39    1
    41    22    23    1
    42    22    40    1
    43    22    41    1
    44    23    42    1
    45    23    43    1
    46    25    26   ar
    47    25    44    1
    48    26    45    1
@<TRIPOS>SUBSTRUCTURE
     1 <0>         1 TEMP              0 ****  ****    0 ROOT


##########                                Name:    ZINC000461336108
##########                DOCK_Rotatable_Bonds:                   5
##########                         Heavy_Atoms:                  26
##########                    Molecular_Weight:             373.522
##########                DOCK_Rotatable_Bonds:                   5
##########                       Formal_Charge:        -3.42727e-07
##########                     HBond_Acceptors:                   7
##########                        HBond_Donors:                   0
##########                         Heavy_Atoms:                  26
##########                          Grid_Score:          -29.069540
##########                     Grid_vdw_energy:          -29.970482
##########                      Grid_es_energy:            0.900942
##########           Internal_energy_repulsive:           11.424864

@<TRIPOS>MOLECULE
ZINC000461336108
 53 56 1 0 0
SMALL
USER_CHARGES


@<TRIPOS>ATOM
      1 C1        -10.7871   -2.7748   54.2461 C.3     1  ZINC000461336108   -0.1300
      2 C2        -11.1898   -1.3234   53.9770 C.3     1  ZINC000461336108    0.0700
      3 H3        -10.2933   -0.7104   53.8850 H       1  ZINC000461336108    0.0800
      4 C4        -11.9756   -1.2528   52.6983 C.2     1  ZINC000461336108    0.5300
      5 O5        -11.5945   -1.8993   51.7456 O.2     1  ZINC000461336108   -0.5300
      6 N6        -13.0778   -0.5072   52.5668 N.am    1  ZINC000461336108   -0.6100
      7 C7        -13.7517   -0.4775   51.2664 C.3     1  ZINC000461336108    0.0700
      8 C8        -13.6399    0.2784   53.6617 C.3     1  ZINC000461336108    0.1200
      9 C9        -12.5898    0.4791   54.7559 C.3     1  ZINC000461336108    0.0400
     10 N10       -12.0064   -0.8289   55.0936 N.3     1  ZINC000461336108   -0.4300
     11 C11       -11.2577   -0.7533   56.2572 C.2     1  ZINC000461336108    0.3300
     12 N12       -10.3197    0.1242   56.5257 N.2     1  ZINC000461336108   -0.2500
     13 N13        -9.8347   -0.0988   57.6947 N.2     1  ZINC000461336108   -0.2800
     14 C14       -10.4293   -1.1234   58.2372 C.2     1  ZINC000461336108    0.2000
     15 C15       -10.1477   -1.7012   59.6002 C.3     1  ZINC000461336108   -0.0300
     16 C16        -9.9766   -0.5650   60.6104 C.3     1  ZINC000461336108   -0.0900
     17 C17       -10.3836   -1.0350   62.0290 C.3     1  ZINC000461336108   -0.1200
     18 C18        -9.6082   -0.0587   62.9481 C.3     1  ZINC000461336108   -0.1200
     19 C19        -8.2535    0.1357   62.2363 C.3     1  ZINC000461336108   -0.1300
     20 C20        -8.4877   -0.1862   60.7500 C.3     1  ZINC000461336108   -0.1200
     21 N21       -11.3606   -1.5737   57.3428 N.pl3   1  ZINC000461336108   -0.4900
     22 C22       -12.2734   -2.7070   57.5115 C.3     1  ZINC000461336108    0.1700
     23 C23       -13.5165   -2.2482   58.2294 C.2     1  ZINC000461336108   -0.2400
     24 C24       -14.0184   -1.0131   58.1853 C.2     1  ZINC000461336108   -0.0900
     25 C25       -15.1721   -0.8255   58.9267 C.2     1  ZINC000461336108   -0.1400
     26 C26       -15.6071   -1.9083   59.5730 C.2     1  ZINC000461336108   -0.2000
     27 S27       -14.5316   -3.2614   59.2475 S.3     1  ZINC000461336108    0.1200
     28 H28       -11.6827   -3.3892   54.3383 H       1  ZINC000461336108    0.0800
     29 H29       -10.1780   -3.1419   53.4201 H       1  ZINC000461336108    0.0800
     30 H30       -10.2137   -2.8271   55.1716 H       1  ZINC000461336108    0.0700
     31 H31       -13.2116   -1.1111   50.5627 H       1  ZINC000461336108    0.0900
     32 H32       -14.7718   -0.8452   51.3773 H       1  ZINC000461336108    0.0700
     33 H33       -13.7730    0.5458   50.8914 H       1  ZINC000461336108    0.0600
     34 H34       -13.9584    1.2498   53.2835 H       1  ZINC000461336108    0.0900
     35 H35       -14.5004   -0.2455   54.0780 H       1  ZINC000461336108    0.0900
     36 H36       -11.8080    1.1471   54.3942 H       1  ZINC000461336108    0.0500
     37 H37       -13.0607    0.9089   55.6401 H       1  ZINC000461336108    0.1100
     38 H38       -10.9797   -2.3360   59.9048 H       1  ZINC000461336108    0.0800
     39 H39        -9.2337   -2.2939   59.5618 H       1  ZINC000461336108    0.1000
     40 H40       -10.5644    0.3026   60.3105 H       1  ZINC000461336108    0.0900
     41 H41       -11.4586   -0.9327   62.1763 H       1  ZINC000461336108    0.0600
     42 H42       -10.0651   -2.0631   62.2015 H       1  ZINC000461336108    0.0600
     43 H43       -10.1369    0.8910   63.0281 H       1  ZINC000461336108    0.0700
     44 H44        -9.4613   -0.4988   63.9345 H       1  ZINC000461336108    0.0700
     45 H45        -7.9183    1.1669   62.3468 H       1  ZINC000461336108    0.0700
     46 H46        -7.5115   -0.5453   62.6533 H       1  ZINC000461336108    0.0600
     47 H47        -7.8594   -1.0233   60.4457 H       1  ZINC000461336108    0.0700
     48 H48        -8.2662    0.6889   60.1390 H       1  ZINC000461336108    0.0700
     49 H49       -12.5445   -3.1039   56.5331 H       1  ZINC000461336108    0.1200
     50 H50       -11.7825   -3.4851   58.0960 H       1  ZINC000461336108    0.1000
     51 H51       -13.5591   -0.2196   57.6145 H       1  ZINC000461336108    0.1400
     52 H52       -15.6812    0.1255   58.9783 H       1  ZINC000461336108    0.1500
     53 H53       -16.4872   -1.9488   60.1976 H       1  ZINC000461336108    0.1700
@<TRIPOS>BOND
     1     1     2    1
     2     1    28    1
     3     1    29    1
     4     1    30    1
     5     2     3    1
     6     2    10    1
     7     2     4    1
     8     4     5    2
     9     4     6   am
    10     6     7    1
    11     6     8    1
    12     7    31    1
    13     7    32    1
    14     7    33    1
    15     8     9    1
    16     8    34    1
    17     8    35    1
    18     9    10    1
    19     9    36    1
    20     9    37    1
    21    10    11    1
    22    11    21    1
    23    11    12    2
    24    12    13    1
    25    13    14    2
    26    14    15    1
    27    14    21    1
    28    15    16    1
    29    15    38    1
    30    15    39    1
    31    16    20    1
    32    16    17    1
    33    16    40    1
    34    17    18    1
    35    17    41    1
    36    17    42    1
    37    18    19    1
    38    18    43    1
    39    18    44    1
    40    19    20    1
    41    19    45    1
    42    19    46    1
    43    20    47    1
    44    20    48    1
    45    21    22    1
    46    22    23    1
    47    22    49    1
    48    22    50    1
    49    23    27    1
    50    23    24    2
    51    24    25    1
    52    24    51    1
    53    25    26    2
    54    25    52    1
    55    26    27    1
    56    26    53    1
@<TRIPOS>SUBSTRUCTURE
     1 ZINC000461336108        1 TEMP              0 ****  ****    0 ROOT


##########                                Name:    ZINC000004313955
##########                DOCK_Rotatable_Bonds:                   6
##########                         Heavy_Atoms:                  26
##########                    Molecular_Weight:             414.358
##########                DOCK_Rotatable_Bonds:                   6
##########                       Formal_Charge:           0.0299997
##########                     HBond_Acceptors:                   9
##########                        HBond_Donors:                   2
##########                         Heavy_Atoms:                  26
##########                          Grid_Score:          -29.064432
##########                     Grid_vdw_energy:          -27.020098
##########                      Grid_es_energy:           -2.044334
##########           Internal_energy_repulsive:           12.508153

@<TRIPOS>MOLECULE
ZINC000004313955
 47 49 1 0 0
SMALL
USER_CHARGES


@<TRIPOS>ATOM
      1 C1         -2.3698    1.9638   49.2364 C.3     1  ZINC000004313955   -0.1500
      2 C2         -2.5746    3.2491   50.0410 C.3     1  ZINC000004313955   -0.1100
      3 H3         -3.3082    3.8797   49.5388 H       1  ZINC000004313955    0.0800
      4 C4         -1.2456    4.0000   50.1510 C.3     1  ZINC000004313955   -0.1100
      5 C5         -1.4561    5.3019   50.9275 C.3     1  ZINC000004313955   -0.1100
      6 H6         -0.5142    5.8474   50.9853 H       1  ZINC000004313955    0.0900
      7 C7         -2.5004    6.1606   50.2110 C.3     1  ZINC000004313955   -0.1500
      8 C8         -1.9452    4.9748   52.3419 C.3     1  ZINC000004313955    0.1200
      9 N9         -3.1433    4.1299   52.2443 N.am    1  ZINC000004313955   -0.6000
     10 C10        -4.2822    4.4779   52.8754 C.2     1  ZINC000004313955    0.5400
     11 O11        -4.3243    5.4962   53.5328 O.2     1  ZINC000004313955   -0.5300
     12 C12        -5.5032    3.6016   52.7643 C.3     1  ZINC000004313955   -0.1400
     13 S13        -6.9559    4.5153   53.3398 S.3     1  ZINC000004313955    0.0800
     14 C14        -8.1828    3.2584   53.2000 C.2     1  ZINC000004313955    0.1100
     15 N15        -9.1014    3.1663   52.2647 N.2     1  ZINC000004313955   -0.2800
     16 N16        -9.8320    2.1281   52.4644 N.2     1  ZINC000004313955   -0.2400
     17 C17        -9.4249    1.4935   53.5391 C.2     1  ZINC000004313955    0.2500
     18 C18       -10.0055    0.2558   54.1013 C.ar    1  ZINC000004313955   -0.0100
     19 C19       -10.4110    0.2155   55.4361 C.ar    1  ZINC000004313955   -0.0700
     20 C20       -10.9521   -0.9424   55.9552 C.ar    1  ZINC000004313955   -0.1100
     21 C21       -11.0931   -2.0639   55.1555 C.ar    1  ZINC000004313955   -0.0100
     22 Cl22      -11.7745   -3.5171   55.8172 Cl      1  ZINC000004313955   -0.0500
     23 C23       -10.6934   -2.0311   53.8302 C.ar    1  ZINC000004313955   -0.1100
     24 C24       -10.1558   -0.8768   53.2972 C.ar    1  ZINC000004313955    0.0100
     25 Cl25       -9.6549   -0.8368   51.6356 Cl      1  ZINC000004313955   -0.0100
     26 N26        -8.3528    2.1949   54.0403 N.pl3   1  ZINC000004313955   -0.3000
     27 N27        -7.6166    1.8948   55.1512 N.3     1  ZINC000004313955   -0.5800
     28 C28        -3.0771    2.8988   51.4450 C.3     1  ZINC000004313955    0.1100
     29 H29        -3.3163    1.4288   49.1593 H       1  ZINC000004313955    0.0600
     30 H30        -2.0111    2.2135   48.2380 H       1  ZINC000004313955    0.0600
     31 H31        -1.6361    1.3336   49.7390 H       1  ZINC000004313955    0.0600
     32 H32        -0.5194    3.3782   50.6746 H       1  ZINC000004313955    0.0700
     33 H33        -0.8740    4.2288   49.1522 H       1  ZINC000004313955    0.0700
     34 H34        -3.4424    5.6151   50.1544 H       1  ZINC000004313955    0.0600
     35 H35        -2.6499    7.0876   50.7644 H       1  ZINC000004313955    0.0600
     36 H36        -2.1526    6.3906   49.2039 H       1  ZINC000004313955    0.0600
     37 H37        -1.1647    4.4411   52.8840 H       1  ZINC000004313955    0.0700
     38 H38        -2.1910    5.8983   52.8661 H       1  ZINC000004313955    0.1000
     39 H39        -5.6467    3.3088   51.7242 H       1  ZINC000004313955    0.1300
     40 H40        -5.3679    2.7106   53.3774 H       1  ZINC000004313955    0.1300
     41 H41       -10.3011    1.0892   56.0614 H       1  ZINC000004313955    0.1600
     42 H42       -11.2662   -0.9743   56.9882 H       1  ZINC000004313955    0.1500
     43 H43       -10.8059   -2.9090   53.2114 H       1  ZINC000004313955    0.1500
     44 H44        -7.7527    0.9336   55.4262 H       1  ZINC000004313955    0.3700
     45 H45        -6.6387    2.0931   55.0014 H       1  ZINC000004313955    0.3800
     46 H46        -4.0694    2.4528   51.3782 H       1  ZINC000004313955    0.0900
     47 H47        -2.3890    2.1953   51.9138 H       1  ZINC000004313955    0.0800
@<TRIPOS>BOND
     1     1     2    1
     2     1    29    1
     3     1    30    1
     4     1    31    1
     5     2     3    1
     6     2    28    1
     7     2     4    1
     8     4     5    1
     9     4    32    1
    10     4    33    1
    11     5     6    1
    12     5     7    1
    13     5     8    1
    14     7    34    1
    15     7    35    1
    16     7    36    1
    17     8     9    1
    18     8    37    1
    19     8    38    1
    20     9    10   am
    21     9    28    1
    22    10    11    2
    23    10    12    1
    24    12    13    1
    25    12    39    1
    26    12    40    1
    27    13    14    1
    28    14    26    1
    29    14    15    2
    30    15    16    1
    31    16    17    2
    32    17    18    1
    33    17    26    1
    34    18    24   ar
    35    18    19   ar
    36    19    20   ar
    37    19    41    1
    38    20    21   ar
    39    20    42    1
    40    21    22    1
    41    21    23   ar
    42    23    24   ar
    43    23    43    1
    44    24    25    1
    45    26    27    1
    46    27    44    1
    47    27    45    1
    48    28    46    1
    49    28    47    1
@<TRIPOS>SUBSTRUCTURE
     1 ZINC000004313955        1 TEMP              0 ****  ****    0 ROOT


##########                                Name:    ZINC000291574087
##########                DOCK_Rotatable_Bonds:                   8
##########                         Heavy_Atoms:                  23
##########                    Molecular_Weight:             387.249
##########                DOCK_Rotatable_Bonds:                   8
##########                       Formal_Charge:          -0.0400007
##########                     HBond_Acceptors:                   6
##########                        HBond_Donors:                   2
##########                         Heavy_Atoms:                  23
##########                          Grid_Score:          -29.042862
##########                     Grid_vdw_energy:          -24.206409
##########                      Grid_es_energy:           -4.836453
##########           Internal_energy_repulsive:           26.815233

@<TRIPOS>MOLECULE
ZINC000291574087
 43 44 1 0 0
SMALL
USER_CHARGES


@<TRIPOS>ATOM
      1 C1         -5.6419    4.2116   58.1566 C.3     1  ZINC000291574087    0.0200
      2 O2         -6.0806    4.6054   56.8548 O.3     1  ZINC000291574087   -0.3700
      3 C3         -5.5467    3.8082   55.7957 C.3     1  ZINC000291574087    0.1400
      4 C4         -6.0065    2.3590   55.9667 C.3     1  ZINC000291574087   -0.1500
      5 C5         -4.0183    3.8662   55.8344 C.3     1  ZINC000291574087    0.0900
      6 N6         -3.4781    3.3555   54.5720 N.am    1  ZINC000291574087   -0.6900
      7 C7         -2.7024    4.1446   53.8025 C.2     1  ZINC000291574087    0.5100
      8 O8         -2.4525    5.2787   54.1547 O.2     1  ZINC000291574087   -0.5100
      9 C9         -2.1503    3.6232   52.5166 C.2     1  ZINC000291574087    0.5100
     10 O10        -1.0164    3.1922   52.4732 O.2     1  ZINC000291574087   -0.4900
     11 N11        -2.9113    3.6310   51.4043 N.am    1  ZINC000291574087   -0.6400
     12 C12        -2.3943    3.1427   50.1999 C.ar    1  ZINC000291574087    0.1300
     13 C13        -2.8098    1.9107   49.7132 C.ar    1  ZINC000291574087   -0.1000
     14 C14        -2.2979    1.4309   48.5230 C.ar    1  ZINC000291574087   -0.0400
     15 C15        -2.7489    0.0935   47.9950 C.3     1  ZINC000291574087   -0.1300
     16 C16        -1.3722    2.1763   47.8151 C.ar    1  ZINC000291574087   -0.0900
     17 Br17       -0.6759    1.5151   46.1860 Br      1  ZINC000291574087   -0.0300
     18 C18        -0.9550    3.4051   48.2961 C.ar    1  ZINC000291574087   -0.1000
     19 C19        -1.4668    3.8934   49.4840 C.ar    1  ZINC000291574087    0.0700
     20 F20        -1.0597    5.0928   49.9538 F       1  ZINC000291574087   -0.1300
     21 C21        -6.0437    4.3458   54.4523 C.3     1  ZINC000291574087   -0.1900
     22 C22        -6.6687    3.3450   53.4784 C.3     1  ZINC000291574087   -0.1700
     23 C23        -7.5544    4.3552   54.2104 C.3     1  ZINC000291574087   -0.1600
     24 H24        -6.0912    4.8651   58.9045 H       1  ZINC000291574087    0.0900
     25 H25        -5.9440    3.1815   58.3457 H       1  ZINC000291574087    0.0400
     26 H26        -4.5560    4.2880   58.2126 H       1  ZINC000291574087    0.0500
     27 H27        -7.0954    2.3177   55.9392 H       1  ZINC000291574087    0.0700
     28 H28        -5.5993    1.7510   55.1589 H       1  ZINC000291574087    0.0800
     29 H29        -5.6525    1.9760   56.9238 H       1  ZINC000291574087    0.0700
     30 H30        -3.6973    4.8983   55.9758 H       1  ZINC000291574087    0.0900
     31 H31        -3.6522    3.2555   56.6597 H       1  ZINC000291574087    0.0800
     32 H32        -3.6788    2.4493   54.2900 H       1  ZINC000291574087    0.4200
     33 H33        -3.8175    3.9752   51.4389 H       1  ZINC000291574087    0.4300
     34 H34        -3.5323    1.3276   50.2648 H       1  ZINC000291574087    0.1600
     35 H35        -3.6200    0.2309   47.3544 H       1  ZINC000291574087    0.0800
     36 H36        -1.9425   -0.3605   47.4191 H       1  ZINC000291574087    0.0800
     37 H37        -3.0106   -0.5572   48.8294 H       1  ZINC000291574087    0.0800
     38 H38        -0.2319    3.9846   47.7413 H       1  ZINC000291574087    0.1500
     39 H39        -5.4611    5.1640   54.0288 H       1  ZINC000291574087    0.1100
     40 H40        -6.4972    3.5043   52.4138 H       1  ZINC000291574087    0.1000
     41 H41        -6.7257    2.3035   53.7948 H       1  ZINC000291574087    0.1000
     42 H42        -8.1942    3.9783   55.0083 H       1  ZINC000291574087    0.1000
     43 H43        -7.9656    5.1793   53.6274 H       1  ZINC000291574087    0.1000
@<TRIPOS>BOND
     1     1     2    1
     2     1    24    1
     3     1    25    1
     4     1    26    1
     5     2     3    1
     6     3     4    1
     7     3     5    1
     8     3    21    1
     9     4    27    1
    10     4    28    1
    11     4    29    1
    12     5     6    1
    13     5    30    1
    14     5    31    1
    15     6     7   am
    16     6    32    1
    17     7     8    2
    18     7     9    1
    19     9    10    2
    20     9    11   am
    21    11    12    1
    22    11    33    1
    23    12    19   ar
    24    12    13   ar
    25    13    14   ar
    26    13    34    1
    27    14    15    1
    28    14    16   ar
    29    15    35    1
    30    15    36    1
    31    15    37    1
    32    16    17    1
    33    16    18   ar
    34    18    19   ar
    35    18    38    1
    36    19    20    1
    37    21    23    1
    38    21    22    1
    39    21    39    1
    40    22    23    1
    41    22    40    1
    42    22    41    1
    43    23    42    1
    44    23    43    1
@<TRIPOS>SUBSTRUCTURE
     1 ZINC000291574087        1 TEMP              0 ****  ****    0 ROOT


##########                                Name:    ZINC000774689801
##########                DOCK_Rotatable_Bonds:                   4
##########                         Heavy_Atoms:                  24
##########                    Molecular_Weight:             347.395
##########                DOCK_Rotatable_Bonds:                   4
##########                       Formal_Charge:         -0.00999961
##########                     HBond_Acceptors:                   8
##########                        HBond_Donors:                   1
##########                         Heavy_Atoms:                  24
##########                          Grid_Score:          -29.034138
##########                     Grid_vdw_energy:          -27.854965
##########                      Grid_es_energy:           -1.179173
##########           Internal_energy_repulsive:           12.233041

@<TRIPOS>MOLECULE
ZINC000774689801
 41 44 1 0 0
SMALL
USER_CHARGES


@<TRIPOS>ATOM
      1 C1        -13.3101   -3.4132   58.3324 C.3     1  ZINC000774689801   -0.1200
      2 C2        -13.0027   -2.0234   57.8373 C.2     1  ZINC000774689801    0.0600
      3 C3        -13.3311   -0.9249   58.5361 C.2     1  ZINC000774689801   -0.2800
      4 C4        -14.0109   -0.9328   59.8331 C.2     1  ZINC000774689801    0.5500
      5 O5        -15.2090   -1.1342   59.8905 O.2     1  ZINC000774689801   -0.4900
      6 O6        -13.3082   -0.7169   60.9643 O.3     1  ZINC000774689801   -0.3400
      7 C7        -12.0225   -0.0566   60.8257 C.3     1  ZINC000774689801    0.0900
      8 C8        -10.9468   -1.0969   60.5069 C.3     1  ZINC000774689801   -0.1300
      9 H9        -11.3452   -1.8660   59.8453 H       1  ZINC000774689801    0.1200
     10 C10        -9.7120   -0.4201   59.8679 C.3     1  ZINC000774689801   -0.1300
     11 C11        -8.5533   -1.2437   60.4724 C.3     1  ZINC000774689801    0.1000
     12 N12        -9.0716   -1.7796   61.7366 N.am    1  ZINC000774689801   -0.7400
     13 C13       -10.4160   -1.7171   61.7806 C.2     1  ZINC000774689801    0.5200
     14 O14       -11.0992   -2.0987   62.7071 O.2     1  ZINC000774689801   -0.5100
     15 S15       -12.8311    0.5222   57.6774 S.3     1  ZINC000774689801    0.3000
     16 C16       -12.1710   -0.4321   56.3546 C.2     1  ZINC000774689801    0.1000
     17 C17       -12.3533   -1.7921   56.6262 C.2     1  ZINC000774689801   -0.2500
     18 C18       -11.8560   -2.7464   55.6169 C.2     1  ZINC000774689801    0.5700
     19 O19       -11.9794   -3.9469   55.7821 O.2     1  ZINC000774689801   -0.5000
     20 N20       -11.2601   -2.2597   54.5031 N.am    1  ZINC000774689801   -0.5500
     21 C21       -10.6842   -2.9994   53.3668 C.3     1  ZINC000774689801    0.0900
     22 C22       -10.5595   -1.9717   52.2232 C.3     1  ZINC000774689801   -0.1300
     23 C23       -10.4374   -0.6448   53.0030 C.3     1  ZINC000774689801   -0.0800
     24 C24       -11.1309   -0.9203   54.3268 C.2     1  ZINC000774689801    0.4200
     25 N25       -11.5616   -0.0638   55.2146 N.2     1  ZINC000774689801   -0.5100
     26 H26       -12.4765   -3.7776   58.9329 H       1  ZINC000774689801    0.0800
     27 H27       -14.2138   -3.3904   58.9414 H       1  ZINC000774689801    0.1000
     28 H28       -13.4622   -4.0768   57.4812 H       1  ZINC000774689801    0.0800
     29 H29       -12.0738    0.6726   60.0172 H       1  ZINC000774689801    0.0900
     30 H30       -11.7724    0.4509   61.7574 H       1  ZINC000774689801    0.0800
     31 H31        -9.7332   -0.5151   58.7823 H       1  ZINC000774689801    0.1000
     32 H32        -9.6432    0.6263   60.1651 H       1  ZINC000774689801    0.0900
     33 H33        -8.2793   -2.0581   59.8016 H       1  ZINC000774689801    0.0800
     34 H34        -7.6921   -0.6023   60.6595 H       1  ZINC000774689801    0.0800
     35 H35        -8.5171   -2.1349   62.4487 H       1  ZINC000774689801    0.4100
     36 H36        -9.7016   -3.3903   53.6309 H       1  ZINC000774689801    0.1000
     37 H37       -11.3472   -3.8127   53.0718 H       1  ZINC000774689801    0.1000
     38 H38        -9.6656   -2.1576   51.6277 H       1  ZINC000774689801    0.1100
     39 H39       -11.4514   -1.9753   51.5967 H       1  ZINC000774689801    0.0900
     40 H40        -9.3894   -0.3941   53.1669 H       1  ZINC000774689801    0.1200
     41 H41       -10.9431    0.1592   52.4682 H       1  ZINC000774689801    0.1200
@<TRIPOS>BOND
     1     1     2    1
     2     1    26    1
     3     1    27    1
     4     1    28    1
     5     2    17    1
     6     2     3    2
     7     3     4    1
     8     3    15    1
     9     4     5    2
    10     4     6    1
    11     6     7    1
    12     7     8    1
    13     7    29    1
    14     7    30    1
    15     8     9    1
    16     8    13    1
    17     8    10    1
    18    10    11    1
    19    10    31    1
    20    10    32    1
    21    11    12    1
    22    11    33    1
    23    11    34    1
    24    12    13   am
    25    12    35    1
    26    13    14    2
    27    15    16    1
    28    16    25    1
    29    16    17    2
    30    17    18    1
    31    18    19    2
    32    18    20   am
    33    20    24    1
    34    20    21    1
    35    21    22    1
    36    21    36    1
    37    21    37    1
    38    22    23    1
    39    22    38    1
    40    22    39    1
    41    23    24    1
    42    23    40    1
    43    23    41    1
    44    24    25    2
@<TRIPOS>SUBSTRUCTURE
     1 ZINC000774689801        1 TEMP              0 ****  ****    0 ROOT


##########                                Name:    ZINC000647468483
##########                DOCK_Rotatable_Bonds:                   5
##########                         Heavy_Atoms:                  24
##########                    Molecular_Weight:             341.373
##########                DOCK_Rotatable_Bonds:                   5
##########                       Formal_Charge:           0.0300004
##########                     HBond_Acceptors:                   6
##########                        HBond_Donors:                   2
##########                         Heavy_Atoms:                  24
##########                          Grid_Score:          -29.028332
##########                     Grid_vdw_energy:          -24.864111
##########                      Grid_es_energy:           -4.164220
##########           Internal_energy_repulsive:           19.909126

@<TRIPOS>MOLECULE
ZINC000647468483
 46 48 1 0 0
SMALL
USER_CHARGES


@<TRIPOS>ATOM
      1 O1         -1.7824   -1.0115   48.5975 O.co2   1  ZINC000647468483   -0.6800
      2 C2         -1.8449   -0.4634   47.5103 C.2     1  ZINC000647468483    0.5000
      3 O3         -2.8165   -0.6376   46.7945 O.co2   1  ZINC000647468483   -0.6900
      4 C4         -0.7240    0.4347   47.0537 C.3     1  ZINC000647468483   -0.1500
      5 H5         -0.0969   -0.0744   46.3218 H       1  ZINC000647468483    0.0800
      6 C6          0.1200    0.9157   48.2599 C.3     1  ZINC000647468483   -0.1100
      7 C7          0.7728    2.2237   47.7673 C.3     1  ZINC000647468483   -0.1400
      8 C8         -0.1189    2.7603   46.6338 C.3     1  ZINC000647468483    0.0100
      9 H9          0.4508    2.8186   45.7063 H       1  ZINC000647468483    0.1400
     10 N10        -0.6395    4.0873   46.9884 N.4     1  ZINC000647468483   -0.5000
     11 H11        -1.3238    4.3739   46.3044 H       1  ZINC000647468483    0.4200
     12 H12        -1.0713    4.0467   47.8995 H       1  ZINC000647468483    0.4300
     13 C13         0.4645    5.0561   47.0123 C.3     1  ZINC000647468483    0.0200
     14 H14         1.2666    4.6919   47.6542 H       1  ZINC000647468483    0.1500
     15 C15         0.9942    5.2869   45.5863 C.3     1  ZINC000647468483   -0.1400
     16 C16         0.7915    6.7847   45.2778 C.3     1  ZINC000647468483   -0.1300
     17 C17        -0.3527    7.2168   46.2282 C.3     1  ZINC000647468483   -0.1300
     18 C18        -0.0416    6.4214   47.5219 C.3     1  ZINC000647468483   -0.0600
     19 H19         0.7328    6.9238   48.1017 H       1  ZINC000647468483    0.1300
     20 C20        -1.2899    6.2499   48.3487 C.ar    1  ZINC000647468483   -0.1200
     21 C21        -2.3867    7.0591   48.1201 C.ar    1  ZINC000647468483   -0.0700
     22 C22        -3.5319    6.9018   48.8786 C.ar    1  ZINC000647468483   -0.1000
     23 C23        -3.5800    5.9350   49.8651 C.ar    1  ZINC000647468483   -0.0600
     24 C24        -2.4830    5.1250   50.0932 C.ar    1  ZINC000647468483   -0.1600
     25 C25        -2.5353    4.0712   51.1693 C.3     1  ZINC000647468483    0.5000
     26 F26        -3.6338    4.3093   52.0021 F       1  ZINC000647468483   -0.1700
     27 F27        -2.6616    2.8087   50.5800 F       1  ZINC000647468483   -0.1700
     28 F28        -1.3587    4.1176   51.9248 F       1  ZINC000647468483   -0.1700
     29 C29        -1.3397    5.2794   49.3321 C.ar    1  ZINC000647468483   -0.1100
     30 C30        -1.2825    1.7573   46.4725 C.3     1  ZINC000647468483   -0.1200
     31 H31        -0.5202    1.1094   49.1205 H       1  ZINC000647468483    0.0800
     32 H32         0.8835    0.1788   48.5094 H       1  ZINC000647468483    0.0800
     33 H33         0.8185    2.9477   48.5809 H       1  ZINC000647468483    0.0700
     34 H34         1.7753    2.0218   47.3900 H       1  ZINC000647468483    0.1000
     35 H35         2.0537    5.0355   45.5363 H       1  ZINC000647468483    0.1000
     36 H36         0.4322    4.6800   44.8763 H       1  ZINC000647468483    0.0900
     37 H37         1.7004    7.3456   45.4953 H       1  ZINC000647468483    0.0800
     38 H38         0.4962    6.9235   44.2377 H       1  ZINC000647468483    0.0900
     39 H39        -0.3144    8.2897   46.4161 H       1  ZINC000647468483    0.0900
     40 H40        -1.3222    6.9291   45.8215 H       1  ZINC000647468483    0.0800
     41 H41        -2.3492    7.8145   47.3490 H       1  ZINC000647468483    0.1400
     42 H42        -4.3887    7.5346   48.7003 H       1  ZINC000647468483    0.1500
     43 H43        -4.4742    5.8127   50.4582 H       1  ZINC000647468483    0.1500
     44 H44        -0.4828    4.6467   49.5103 H       1  ZINC000647468483    0.1400
     45 H45        -1.5406    1.6384   45.4202 H       1  ZINC000647468483    0.0900
     46 H46        -2.1506    2.0850   47.0445 H       1  ZINC000647468483    0.1000
@<TRIPOS>BOND
     1     1     2   ar
     2     2     3   ar
     3     2     4    1
     4     4     5    1
     5     4    30    1
     6     4     6    1
     7     6     7    1
     8     6    31    1
     9     6    32    1
    10     7     8    1
    11     7    33    1
    12     7    34    1
    13     8     9    1
    14     8    10    1
    15     8    30    1
    16    10    11    1
    17    10    12    1
    18    10    13    1
    19    13    14    1
    20    13    18    1
    21    13    15    1
    22    15    16    1
    23    15    35    1
    24    15    36    1
    25    16    17    1
    26    16    37    1
    27    16    38    1
    28    17    18    1
    29    17    39    1
    30    17    40    1
    31    18    19    1
    32    18    20    1
    33    20    29   ar
    34    20    21   ar
    35    21    22   ar
    36    21    41    1
    37    22    23   ar
    38    22    42    1
    39    23    24   ar
    40    23    43    1
    41    24    25    1
    42    24    29   ar
    43    25    26    1
    44    25    27    1
    45    25    28    1
    46    29    44    1
    47    30    45    1
    48    30    46    1
@<TRIPOS>SUBSTRUCTURE
     1 ZINC000647468483        1 TEMP              0 ****  ****    0 ROOT


##########                                Name:    ZINC000281257088
##########                DOCK_Rotatable_Bonds:                   8
##########                         Heavy_Atoms:                  27
##########                    Molecular_Weight:             395.541
##########                DOCK_Rotatable_Bonds:                   8
##########                       Formal_Charge:          -0.0200005
##########                     HBond_Acceptors:                   7
##########                        HBond_Donors:                   1
##########                         Heavy_Atoms:                  27
##########                          Grid_Score:          -29.007999
##########                     Grid_vdw_energy:          -26.879143
##########                      Grid_es_energy:           -2.128857
##########           Internal_energy_repulsive:           26.596296

@<TRIPOS>MOLECULE
ZINC000281257088
 57 58 1 0 0
SMALL
USER_CHARGES


@<TRIPOS>ATOM
      1 C1         -4.0193    3.4115   51.5653 C.3     1  ZINC000281257088   -0.0700
      2 C2         -2.7009    3.3020   50.8437 C.2     1  ZINC000281257088    0.1000
      3 N3         -2.5181    2.7904   49.6534 N.2     1  ZINC000281257088   -0.3000
      4 N4         -1.1544    2.8769   49.3447 N.pl3   1  ZINC000281257088   -0.3700
      5 C5         -0.5204    2.4185   48.1060 C.3     1  ZINC000281257088    0.1500
      6 C6         -1.5994    1.9968   47.1066 C.3     1  ZINC000281257088   -0.6400
      7 S7         -0.9386    0.7120   46.0097 S.o2    1  ZINC000281257088    2.4300
      8 C8         -2.2934    0.4998   44.8223 C.3     1  ZINC000281257088   -0.6500
      9 O9          0.1877    1.2391   45.3221 O.2     1  ZINC000281257088   -0.9300
     10 O10        -0.7968   -0.4900   46.7543 O.2     1  ZINC000281257088   -0.9300
     11 C11        -0.5280    3.4570   50.3897 C.2     1  ZINC000281257088    0.0900
     12 C12         0.9471    3.7487   50.4908 C.3     1  ZINC000281257088   -0.1000
     13 C13        -1.4623    3.7350   51.3281 C.2     1  ZINC000281257088   -0.2300
     14 C14        -1.2114    4.3878   52.6630 C.3     1  ZINC000281257088    0.1400
     15 N15        -0.8100    3.3666   53.6397 N.3     1  ZINC000281257088   -0.6700
     16 C16        -0.0083    3.9572   54.7196 C.3     1  ZINC000281257088    0.1400
     17 H17         0.4065    4.9083   54.3858 H       1  ZINC000281257088    0.0500
     18 C18         1.1142    3.0195   55.0826 C.ar    1  ZINC000281257088   -0.0800
     19 C19         0.9047    1.6531   55.0679 C.ar    1  ZINC000281257088   -0.0600
     20 C20         1.9334    0.7921   55.4006 C.ar    1  ZINC000281257088   -0.1600
     21 C21         3.1742    1.2986   55.7481 C.ar    1  ZINC000281257088    0.1000
     22 F22         4.1807    0.4579   56.0729 F       1  ZINC000281257088   -0.1400
     23 C23         3.3830    2.6672   55.7619 C.ar    1  ZINC000281257088   -0.1600
     24 C24         2.3543    3.5260   55.4242 C.ar    1  ZINC000281257088   -0.0900
     25 C25        -0.8950    4.1894   55.9447 C.3     1  ZINC000281257088   -0.0600
     26 C26        -1.3077    5.6615   56.0039 C.3     1  ZINC000281257088   -0.1400
     27 C27        -2.1450    3.3130   55.8430 C.3     1  ZINC000281257088   -0.1400
     28 C28        -0.1190    3.8259   57.2122 C.3     1  ZINC000281257088   -0.1500
     29 H29        -4.4933    4.3603   51.3140 H       1  ZINC000281257088    0.0800
     30 H30        -4.6685    2.5897   51.2630 H       1  ZINC000281257088    0.0700
     31 H31        -3.8498    3.3637   52.6410 H       1  ZINC000281257088    0.0800
     32 H32         0.0726    3.2280   47.6803 H       1  ZINC000281257088    0.1100
     33 H33         0.1269    1.5686   48.3221 H       1  ZINC000281257088    0.1100
     34 H34        -2.4616    1.6054   47.6464 H       1  ZINC000281257088    0.1400
     35 H35        -1.9030    2.8597   46.5139 H       1  ZINC000281257088    0.1400
     36 H36        -2.4797    1.4443   44.3111 H       1  ZINC000281257088    0.1300
     37 H37        -2.0201   -0.2613   44.0914 H       1  ZINC000281257088    0.1300
     38 H38        -3.1945    0.1889   45.3509 H       1  ZINC000281257088    0.1300
     39 H39         1.1489    4.7435   50.0937 H       1  ZINC000281257088    0.0800
     40 H40         1.2554    3.7050   51.5354 H       1  ZINC000281257088    0.0900
     41 H41         1.5041    3.0084   49.9164 H       1  ZINC000281257088    0.0700
     42 H42        -0.4162    5.1266   52.5623 H       1  ZINC000281257088    0.0800
     43 H43        -2.1226    4.8789   53.0044 H       1  ZINC000281257088    0.0300
     44 H44        -1.6151    2.8838   54.0096 H       1  ZINC000281257088    0.3400
     45 H45        -0.0633    1.2583   54.7968 H       1  ZINC000281257088    0.1400
     46 H46         1.7692   -0.2753   55.3897 H       1  ZINC000281257088    0.1300
     47 H47         4.3505    3.0634   56.0331 H       1  ZINC000281257088    0.1300
     48 H48         2.5170    4.5937   55.4346 H       1  ZINC000281257088    0.1300
     49 H49        -1.8606    5.9204   55.1010 H       1  ZINC000281257088    0.0600
     50 H50        -1.9394    5.8269   56.8767 H       1  ZINC000281257088    0.0500
     51 H51        -0.4172    6.2858   56.0763 H       1  ZINC000281257088    0.0600
     52 H52        -1.8510    2.2643   55.8008 H       1  ZINC000281257088    0.0500
     53 H53        -2.7767    3.4784   56.7158 H       1  ZINC000281257088    0.0600
     54 H54        -2.6978    3.5720   54.9400 H       1  ZINC000281257088    0.0600
     55 H55         0.7286    4.5018   57.3256 H       1  ZINC000281257088    0.0500
     56 H56        -0.7746    3.9168   58.0782 H       1  ZINC000281257088    0.0600
     57 H57         0.2419    2.8002   57.1356 H       1  ZINC000281257088    0.0600
@<TRIPOS>BOND
     1     1     2    1
     2     1    29    1
     3     1    30    1
     4     1    31    1
     5     2    13    1
     6     2     3    2
     7     3     4    1
     8     4     5    1
     9     4    11    1
    10     5     6    1
    11     5    32    1
    12     5    33    1
    13     6     7    1
    14     6    34    1
    15     6    35    1
    16     7     8    1
    17     7     9    2
    18     7    10    2
    19     8    36    1
    20     8    37    1
    21     8    38    1
    22    11    12    1
    23    11    13    2
    24    12    39    1
    25    12    40    1
    26    12    41    1
    27    13    14    1
    28    14    15    1
    29    14    42    1
    30    14    43    1
    31    15    16    1
    32    15    44    1
    33    16    17    1
    34    16    18    1
    35    16    25    1
    36    18    24   ar
    37    18    19   ar
    38    19    20   ar
    39    19    45    1
    40    20    21   ar
    41    20    46    1
    42    21    22    1
    43    21    23   ar
    44    23    24   ar
    45    23    47    1
    46    24    48    1
    47    25    26    1
    48    25    27    1
    49    25    28    1
    50    26    49    1
    51    26    50    1
    52    26    51    1
    53    27    52    1
    54    27    53    1
    55    27    54    1
    56    28    55    1
    57    28    56    1
    58    28    57    1
@<TRIPOS>SUBSTRUCTURE
     1 ZINC000281257088        1 TEMP              0 ****  ****    0 ROOT


##########                                Name:    ZINC001079355651
##########                DOCK_Rotatable_Bonds:                   5
##########                         Heavy_Atoms:                  25
##########                    Molecular_Weight:             353.851
##########                DOCK_Rotatable_Bonds:                   5
##########                       Formal_Charge:           0.0199997
##########                     HBond_Acceptors:                   5
##########                        HBond_Donors:                   1
##########                         Heavy_Atoms:                  25
##########                          Grid_Score:          -29.003071
##########                     Grid_vdw_energy:          -27.957571
##########                      Grid_es_energy:           -1.045499
##########           Internal_energy_repulsive:            4.285738

@<TRIPOS>MOLECULE
ZINC001079355651
 45 47 1 0 0
SMALL
USER_CHARGES


@<TRIPOS>ATOM
      1 C1          1.0965    5.9422   52.3997 C.3     1  ZINC001079355651   -0.1500
      2 C2          0.6726    4.4721   52.3894 C.3     1  ZINC001079355651   -0.1000
      3 H3          1.5464    3.8275   52.2956 H       1  ZINC001079355651    0.0900
      4 C4         -0.3158    4.2072   51.2334 C.3     1  ZINC001079355651    0.0300
      5 N5         -1.2887    3.2317   51.7890 N.3     1  ZINC001079355651   -0.5100
      6 C6         -2.5441    3.2477   51.0263 C.3     1  ZINC001079355651    0.1600
      7 C7         -2.3402    2.5779   49.7315 C.1     1  ZINC001079355651   -0.1400
      8 C8         -2.1776    2.0437   48.6989 C.1     1  ZINC001079355651   -0.1300
      9 C9         -1.9793    1.3921   47.4392 C.ar    1  ZINC001079355651    0.0300
     10 C10        -2.5235    0.1277   47.2113 C.ar    1  ZINC001079355651   -0.0900
     11 C11        -2.3290   -0.4955   45.9955 C.ar    1  ZINC001079355651   -0.1000
     12 C12        -1.5964    0.1303   45.0032 C.ar    1  ZINC001079355651   -0.1000
     13 C13        -1.0530    1.3850   45.2227 C.ar    1  ZINC001079355651   -0.0300
     14 Cl14       -0.1344    2.1623   43.9715 Cl      1  ZINC001079355651   -0.0600
     15 C15        -1.2457    2.0215   46.4327 C.ar    1  ZINC001079355651   -0.0900
     16 C16        -1.5080    3.6896   53.1851 C.3     1  ZINC001079355651    0.0200
     17 C17        -0.1094    4.1309   53.6745 C.3     1  ZINC001079355651    0.1500
     18 H18        -0.1918    5.0110   54.3123 H       1  ZINC001079355651    0.1000
     19 N19         0.5445    3.0382   54.3990 N.am    1  ZINC001079355651   -0.7100
     20 C20         0.4848    2.9911   55.7446 C.2     1  ZINC001079355651    0.5600
     21 O21        -0.1126    3.8542   56.3569 O.2     1  ZINC001079355651   -0.5300
     22 C22         1.1475    1.8870   56.4772 C.ar    1  ZINC001079355651   -0.0900
     23 C23         1.8772    0.9086   55.7955 C.ar    1  ZINC001079355651   -0.1400
     24 C24         2.4790   -0.1032   56.5184 C.ar    1  ZINC001079355651    0.1000
     25 N25         2.3720   -0.1532   57.8313 N.ar    1  ZINC001079355651   -0.4700
     26 C26         1.6938    0.7488   58.5124 C.ar    1  ZINC001079355651    0.1000
     27 C27         1.0653    1.7980   57.8702 C.ar    1  ZINC001079355651   -0.1200
     28 H28         1.7537    6.1249   53.2499 H       1  ZINC001079355651    0.0600
     29 H29         1.6251    6.1744   51.4753 H       1  ZINC001079355651    0.0700
     30 H30         0.2125    6.5747   52.4814 H       1  ZINC001079355651    0.0600
     31 H31        -0.8226    5.1290   50.9478 H       1  ZINC001079355651    0.0600
     32 H32         0.2061    3.7784   50.3779 H       1  ZINC001079355651    0.0900
     33 H33        -3.3174    2.7241   51.5885 H       1  ZINC001079355651    0.0700
     34 H34        -2.8533    4.2791   50.8571 H       1  ZINC001079355651    0.1100
     35 H35        -3.0954   -0.3625   47.9851 H       1  ZINC001079355651    0.1300
     36 H36        -2.7496   -1.4743   45.8184 H       1  ZINC001079355651    0.1400
     37 H37        -1.4471   -0.3618   44.0535 H       1  ZINC001079355651    0.1400
     38 H38        -0.8217    3.0000   46.6032 H       1  ZINC001079355651    0.1400
     39 H39        -2.2014    4.5303   53.2049 H       1  ZINC001079355651    0.0600
     40 H40        -1.8839    2.8711   53.7990 H       1  ZINC001079355651    0.0900
     41 H41         1.0203    2.3486   53.9102 H       1  ZINC001079355651    0.4000
     42 H42         1.9688    0.9429   54.7199 H       1  ZINC001079355651    0.1400
     43 H43         3.0445   -0.8640   56.0008 H       1  ZINC001079355651    0.1600
     44 H44         1.6321    0.6686   59.5877 H       1  ZINC001079355651    0.1700
     45 H45         0.5112    2.5334   58.4347 H       1  ZINC001079355651    0.1500
@<TRIPOS>BOND
     1     1     2    1
     2     1    28    1
     3     1    29    1
     4     1    30    1
     5     2     3    1
     6     2    17    1
     7     2     4    1
     8     4     5    1
     9     4    31    1
    10     4    32    1
    11     5     6    1
    12     5    16    1
    13     6     7    1
    14     6    33    1
    15     6    34    1
    16     7     8    3
    17     8     9    1
    18     9    15   ar
    19     9    10   ar
    20    10    11   ar
    21    10    35    1
    22    11    12   ar
    23    11    36    1
    24    12    13   ar
    25    12    37    1
    26    13    14    1
    27    13    15   ar
    28    15    38    1
    29    16    17    1
    30    16    39    1
    31    16    40    1
    32    17    18    1
    33    17    19    1
    34    19    20   am
    35    19    41    1
    36    20    21    2
    37    20    22    1
    38    22    27   ar
    39    22    23   ar
    40    23    24   ar
    41    23    42    1
    42    24    25   ar
    43    24    43    1
    44    25    26   ar
    45    26    27   ar
    46    26    44    1
    47    27    45    1
@<TRIPOS>SUBSTRUCTURE
     1 ZINC001079355651        1 TEMP              0 ****  ****    0 ROOT


##########                                Name:    ZINC000518234532
##########                DOCK_Rotatable_Bonds:                   5
##########                         Heavy_Atoms:                  25
##########                    Molecular_Weight:             408.267
##########                DOCK_Rotatable_Bonds:                   5
##########                       Formal_Charge:         -0.00999981
##########                     HBond_Acceptors:                   5
##########                        HBond_Donors:                   1
##########                         Heavy_Atoms:                  25
##########                          Grid_Score:          -28.957968
##########                     Grid_vdw_energy:          -29.702713
##########                      Grid_es_energy:            0.744745
##########           Internal_energy_repulsive:           21.771585

@<TRIPOS>MOLECULE
ZINC000518234532
 44 46 1 0 0
SMALL
USER_CHARGES


@<TRIPOS>ATOM
      1 C1          1.0022    3.7766   48.4955 C.3     1  ZINC000518234532   -0.1600
      2 C2         -0.3442    3.8565   47.7731 C.3     1  ZINC000518234532    0.1800
      3 H3         -0.2619    4.5367   46.9254 H       1  ZINC000518234532    0.1100
      4 N4         -0.7220    2.5241   47.2954 N.am    1  ZINC000518234532   -0.7300
      5 C5         -0.4685    2.1686   46.0203 C.2     1  ZINC000518234532    0.5200
      6 O6          0.0735    2.9512   45.2689 O.2     1  ZINC000518234532   -0.5200
      7 C7         -0.8587    0.7986   45.5283 C.3     1  ZINC000518234532   -0.0700
      8 H8         -0.1392    0.4620   44.7819 H       1  ZINC000518234532    0.1100
      9 C9         -2.2530    0.8598   44.9016 C.3     1  ZINC000518234532   -0.1400
     10 C10        -0.8702   -0.1663   46.6859 C.ar    1  ZINC000518234532   -0.1000
     11 C11        -2.0444   -0.7994   47.0463 C.ar    1  ZINC000518234532   -0.0600
     12 C12        -2.0552   -1.6848   48.1083 C.ar    1  ZINC000518234532   -0.1300
     13 C13        -0.8919   -1.9372   48.8109 C.ar    1  ZINC000518234532   -0.0900
     14 C14         0.2837   -1.3046   48.4525 C.ar    1  ZINC000518234532   -0.1600
     15 C15         0.2971   -0.4231   47.3852 C.ar    1  ZINC000518234532    0.1000
     16 F16         1.4456    0.1957   47.0340 F       1  ZINC000518234532   -0.1400
     17 C17        -1.3956    4.3655   48.7253 C.ar    1  ZINC000518234532   -0.0600
     18 C18        -2.2277    3.4738   49.3750 C.ar    1  ZINC000518234532   -0.1100
     19 C19        -3.1958    3.9392   50.2525 C.ar    1  ZINC000518234532    0.0800
     20 C20        -3.3253    5.3042   50.4785 C.ar    1  ZINC000518234532    0.0600
     21 C21        -2.4882    6.1946   49.8227 C.ar    1  ZINC000518234532   -0.0800
     22 C22        -1.5225    5.7242   48.9520 C.ar    1  ZINC000518234532   -0.0800
     23 Br23       -0.3820    6.9407   48.0603 Br      1  ZINC000518234532   -0.0300
     24 O24        -4.2635    5.7814   51.3415 O.3     1  ZINC000518234532   -0.3000
     25 C25        -5.3264    4.8894   51.6943 C.3     1  ZINC000518234532    0.0200
     26 C26        -4.7148    3.5235   52.0342 C.3     1  ZINC000518234532    0.0200
     27 O27        -4.0106    3.0485   50.8818 O.3     1  ZINC000518234532   -0.3000
     28 H28         1.7627    3.4085   47.8068 H       1  ZINC000518234532    0.0700
     29 H29         1.2832    4.7679   48.8510 H       1  ZINC000518234532    0.0700
     30 H30         0.9199    3.0965   49.3433 H       1  ZINC000518234532    0.0600
     31 H31        -1.1544    1.8978   47.8967 H       1  ZINC000518234532    0.4000
     32 H32        -2.2448    1.5577   44.0643 H       1  ZINC000518234532    0.0700
     33 H33        -2.5354   -0.1311   44.5459 H       1  ZINC000518234532    0.0700
     34 H34        -2.9726    1.1964   45.6481 H       1  ZINC000518234532    0.0700
     35 H35        -2.9540   -0.6024   46.4985 H       1  ZINC000518234532    0.1300
     36 H36        -2.9733   -2.1791   48.3892 H       1  ZINC000518234532    0.1300
     37 H37        -0.9016   -2.6287   49.6405 H       1  ZINC000518234532    0.1300
     38 H38         1.1923   -1.5016   49.0021 H       1  ZINC000518234532    0.1400
     39 H39        -2.1243    2.4132   49.1991 H       1  ZINC000518234532    0.1400
     40 H40        -2.5883    7.2560   49.9949 H       1  ZINC000518234532    0.1500
     41 H41        -5.8606    5.2789   52.5610 H       1  ZINC000518234532    0.1300
     42 H42        -6.0134    4.7859   50.8545 H       1  ZINC000518234532    0.0800
     43 H43        -4.0232    3.6282   52.8702 H       1  ZINC000518234532    0.0800
     44 H44        -5.5061    2.8216   52.2968 H       1  ZINC000518234532    0.1300
@<TRIPOS>BOND
     1     1     2    1
     2     1    28    1
     3     1    29    1
     4     1    30    1
     5     2     3    1
     6     2     4    1
     7     2    17    1
     8     4     5   am
     9     4    31    1
    10     5     6    2
    11     5     7    1
    12     7     8    1
    13     7     9    1
    14     7    10    1
    15     9    32    1
    16     9    33    1
    17     9    34    1
    18    10    15   ar
    19    10    11   ar
    20    11    12   ar
    21    11    35    1
    22    12    13   ar
    23    12    36    1
    24    13    14   ar
    25    13    37    1
    26    14    15   ar
    27    14    38    1
    28    15    16    1
    29    17    22   ar
    30    17    18   ar
    31    18    19   ar
    32    18    39    1
    33    19    27    1
    34    19    20   ar
    35    20    21   ar
    36    20    24    1
    37    21    22   ar
    38    21    40    1
    39    22    23    1
    40    24    25    1
    41    25    26    1
    42    25    41    1
    43    25    42    1
    44    26    27    1
    45    26    43    1
    46    26    44    1
@<TRIPOS>SUBSTRUCTURE
     1 ZINC000518234532        1 TEMP              0 ****  ****    0 ROOT


##########                                Name:    ZINC000536173632
##########                DOCK_Rotatable_Bonds:                   7
##########                         Heavy_Atoms:                  29
##########                    Molecular_Weight:             407.389
##########                DOCK_Rotatable_Bonds:                   7
##########                       Formal_Charge:        -2.98023e-07
##########                     HBond_Acceptors:                   8
##########                        HBond_Donors:                   0
##########                         Heavy_Atoms:                  29
##########                          Grid_Score:          -28.946102
##########                     Grid_vdw_energy:          -28.180531
##########                      Grid_es_energy:           -0.765571
##########           Internal_energy_repulsive:           13.999694

@<TRIPOS>MOLECULE
ZINC000536173632
 49 51 1 0 0
SMALL
USER_CHARGES


@<TRIPOS>ATOM
      1 C1         -2.1836    1.5231   48.7337 C.3     1  ZINC000536173632    0.0400
      2 O2         -3.0135    2.1275   49.7606 O.3     1  ZINC000536173632   -0.3500
      3 C3         -2.5302    3.2285   50.3678 C.2     1  ZINC000536173632    0.5100
      4 O4         -1.4457    3.6721   50.0476 O.2     1  ZINC000536173632   -0.5000
      5 C5         -3.3192    3.8965   51.4231 C.ar    1  ZINC000536173632   -0.1300
      6 C6         -2.8767    5.1010   51.9730 C.ar    1  ZINC000536173632   -0.0600
      7 C7         -3.6183    5.7195   52.9584 C.ar    1  ZINC000536173632   -0.1300
      8 C8         -4.7977    5.1485   53.4019 C.ar    1  ZINC000536173632   -0.0700
      9 C9         -5.2422    3.9547   52.8612 C.ar    1  ZINC000536173632   -0.0800
     10 C10        -6.5282    3.3402   53.3508 C.3     1  ZINC000536173632   -0.1000
     11 C11        -6.3535    2.8766   54.7740 C.2     1  ZINC000536173632    0.5200
     12 O12        -5.2873    3.0235   55.3331 O.2     1  ZINC000536173632   -0.5200
     13 N13        -7.3822    2.2988   55.4256 N.am    1  ZINC000536173632   -0.6200
     14 C14        -8.6850    2.1098   54.7681 C.3     1  ZINC000536173632    0.0700
     15 C15        -9.7770    2.6635   55.6906 C.3     1  ZINC000536173632    0.0500
     16 O16        -9.6322    2.0863   56.9905 O.3     1  ZINC000536173632   -0.3700
     17 C17        -8.3980    2.4046   57.6381 C.3     1  ZINC000536173632    0.1200
     18 H18        -8.2958    3.4871   57.7149 H       1  ZINC000536173632    0.0800
     19 C19        -8.3824    1.7982   59.0176 C.ar    1  ZINC000536173632   -0.0900
     20 C20        -7.9260    2.5375   60.0924 C.ar    1  ZINC000536173632   -0.0600
     21 C21        -7.9117    1.9811   61.3580 C.ar    1  ZINC000536173632   -0.1200
     22 C22        -8.3542    0.6857   61.5484 C.ar    1  ZINC000536173632   -0.0700
     23 C23        -8.8117   -0.0536   60.4734 C.ar    1  ZINC000536173632   -0.1800
     24 C24        -9.2938   -1.4663   60.6810 C.3     1  ZINC000536173632    0.5100
     25 F25        -8.2067   -2.3443   60.6158 F       1  ZINC000536173632   -0.1800
     26 F26        -9.9036   -1.5713   61.9357 F       1  ZINC000536173632   -0.1800
     27 F27       -10.2188   -1.7945   59.6840 F       1  ZINC000536173632   -0.1800
     28 C28        -8.8301    0.5041   59.2090 C.ar    1  ZINC000536173632   -0.0500
     29 C29        -7.2338    1.8326   56.8133 C.3     1  ZINC000536173632    0.0900
     30 C30        -4.5137    3.3289   51.8712 C.ar    1  ZINC000536173632   -0.0400
     31 H31        -2.0094    2.2449   47.9358 H       1  ZINC000536173632    0.0600
     32 H32        -1.2295    1.2234   49.1674 H       1  ZINC000536173632    0.0600
     33 H33        -2.6890    0.6470   48.3272 H       1  ZINC000536173632    0.1000
     34 H34        -1.9557    5.5475   51.6281 H       1  ZINC000536173632    0.1400
     35 H35        -3.2771    6.6514   53.3846 H       1  ZINC000536173632    0.1400
     36 H36        -5.3741    5.6365   54.1740 H       1  ZINC000536173632    0.1300
     37 H37        -7.3256    4.0820   53.3056 H       1  ZINC000536173632    0.1100
     38 H38        -6.7872    2.4893   52.7207 H       1  ZINC000536173632    0.1100
     39 H39        -8.6988    2.6466   53.8195 H       1  ZINC000536173632    0.1000
     40 H40        -8.8568    1.0480   54.5920 H       1  ZINC000536173632    0.0800
     41 H41        -9.6797    3.7469   55.7604 H       1  ZINC000536173632    0.0600
     42 H42       -10.7573    2.4104   55.2870 H       1  ZINC000536173632    0.1100
     43 H43        -7.5802    3.5498   59.9436 H       1  ZINC000536173632    0.1400
     44 H44        -7.5543    2.5586   62.1977 H       1  ZINC000536173632    0.1400
     45 H45        -8.3423    0.2508   62.5370 H       1  ZINC000536173632    0.1400
     46 H46        -9.1875   -0.0733   58.3692 H       1  ZINC000536173632    0.1400
     47 H47        -7.2615    0.7434   56.8455 H       1  ZINC000536173632    0.0800
     48 H48        -6.2868    2.1883   57.2193 H       1  ZINC000536173632    0.1100
     49 H49        -4.8619    2.3975   51.4498 H       1  ZINC000536173632    0.1400
@<TRIPOS>BOND
     1     1     2    1
     2     1    31    1
     3     1    32    1
     4     1    33    1
     5     2     3    1
     6     3     4    2
     7     3     5    1
     8     5    30   ar
     9     5     6   ar
    10     6     7   ar
    11     6    34    1
    12     7     8   ar
    13     7    35    1
    14     8     9   ar
    15     8    36    1
    16     9    10    1
    17     9    30   ar
    18    10    11    1
    19    10    37    1
    20    10    38    1
    21    11    12    2
    22    11    13   am
    23    13    29    1
    24    13    14    1
    25    14    15    1
    26    14    39    1
    27    14    40    1
    28    15    16    1
    29    15    41    1
    30    15    42    1
    31    16    17    1
    32    17    18    1
    33    17    19    1
    34    17    29    1
    35    19    28   ar
    36    19    20   ar
    37    20    21   ar
    38    20    43    1
    39    21    22   ar
    40    21    44    1
    41    22    23   ar
    42    22    45    1
    43    23    24    1
    44    23    28   ar
    45    24    25    1
    46    24    26    1
    47    24    27    1
    48    28    46    1
    49    29    47    1
    50    29    48    1
    51    30    49    1
@<TRIPOS>SUBSTRUCTURE
     1 ZINC000536173632        1 TEMP              0 ****  ****    0 ROOT


##########                                Name:    ZINC000481050680
##########                DOCK_Rotatable_Bonds:                   7
##########                         Heavy_Atoms:                  29
##########                    Molecular_Weight:              412.46
##########                DOCK_Rotatable_Bonds:                   7
##########                       Formal_Charge:          -0.0199997
##########                     HBond_Acceptors:                   7
##########                        HBond_Donors:                   1
##########                         Heavy_Atoms:                  29
##########                          Grid_Score:          -28.934061
##########                     Grid_vdw_energy:          -29.311169
##########                      Grid_es_energy:            0.377108
##########           Internal_energy_repulsive:           53.590393

@<TRIPOS>MOLECULE
ZINC000481050680
 47 49 1 0 0
SMALL
USER_CHARGES


@<TRIPOS>ATOM
      1 N1         -5.5280    4.3144   53.0133 N.1     1  ZINC000481050680   -0.3900
      2 C2         -4.5794    4.1426   52.4124 C.1     1  ZINC000481050680    0.2500
      3 C3         -3.3835    3.9260   51.6550 C.ar    1  ZINC000481050680    0.0200
      4 C4         -2.2999    4.7956   51.7920 C.ar    1  ZINC000481050680   -0.0800
      5 C5         -1.1498    4.5820   51.0602 C.ar    1  ZINC000481050680   -0.0800
      6 C6         -1.0678    3.5090   50.1915 C.ar    1  ZINC000481050680   -0.1000
      7 C7          0.1917    3.2824   49.3957 C.3     1  ZINC000481050680   -0.5900
      8 S8          0.0044    4.0132   47.7460 S.o2    1  ZINC000481050680    2.6000
      9 O9         -1.1393    4.8552   47.7005 O.2     1  ZINC000481050680   -0.9300
     10 O10         1.2607    4.4565   47.2515 O.2     1  ZINC000481050680   -0.9400
     11 N11        -0.3905    2.7348   46.7702 N.am    1  ZINC000481050680   -1.1100
     12 C12         0.5294    1.6022   46.6386 C.3     1  ZINC000481050680    0.2100
     13 H13         1.3848    1.7506   47.2975 H       1  ZINC000481050680    0.1000
     14 C14         1.0125    1.5033   45.1902 C.3     1  ZINC000481050680   -0.0800
     15 C15         1.9209    2.6658   44.8831 C.ar    1  ZINC000481050680   -0.0900
     16 C16         2.6873    3.2279   45.8868 C.ar    1  ZINC000481050680   -0.1200
     17 C17         3.5206    4.2943   45.6053 C.ar    1  ZINC000481050680   -0.1200
     18 C18         3.5877    4.7984   44.3198 C.ar    1  ZINC000481050680   -0.1200
     19 C19         2.8218    4.2358   43.3160 C.ar    1  ZINC000481050680   -0.1200
     20 C20         1.9918    3.1666   43.5966 C.ar    1  ZINC000481050680   -0.1200
     21 C21        -0.1829    0.3298   47.0186 C.ar    1  ZINC000481050680   -0.1300
     22 C22         0.4192   -0.5690   47.8783 C.ar    1  ZINC000481050680   -0.0700
     23 C23        -0.2342   -1.7366   48.2271 C.ar    1  ZINC000481050680   -0.1300
     24 C24        -1.4898   -2.0063   47.7161 C.ar    1  ZINC000481050680   -0.0900
     25 C25        -2.0938   -1.1090   46.8556 C.ar    1  ZINC000481050680   -0.1500
     26 C26        -1.4434    0.0635   46.5108 C.ar    1  ZINC000481050680    0.1100
     27 F27        -2.0328    0.9413   45.6699 F       1  ZINC000481050680   -0.1400
     28 C28        -2.1390    2.6409   50.0500 C.ar    1  ZINC000481050680    0.1200
     29 F29        -2.0515    1.5945   49.1998 F       1  ZINC000481050680   -0.1200
     30 C30        -3.2942    2.8411   50.7807 C.ar    1  ZINC000481050680   -0.1000
     31 H31        -2.3617    5.6344   52.4696 H       1  ZINC000481050680    0.1500
     32 H32        -0.3115    5.2547   51.1657 H       1  ZINC000481050680    0.1500
     33 H33         1.0334    3.7499   49.9068 H       1  ZINC000481050680    0.1500
     34 H34         0.3736    2.2120   49.3004 H       1  ZINC000481050680    0.1500
     35 H35        -1.2310    2.7360   46.2858 H       1  ZINC000481050680    0.4200
     36 H36         1.5578    0.5697   45.0521 H       1  ZINC000481050680    0.0900
     37 H37         0.1542    1.5255   44.5187 H       1  ZINC000481050680    0.0900
     38 H38         2.6350    2.8340   46.8911 H       1  ZINC000481050680    0.1200
     39 H39         4.1190    4.7339   46.3896 H       1  ZINC000481050680    0.1200
     40 H40         4.2381    5.6321   44.1000 H       1  ZINC000481050680    0.1200
     41 H41         2.8739    4.6299   42.3117 H       1  ZINC000481050680    0.1200
     42 H42         1.3934    2.7271   42.8123 H       1  ZINC000481050680    0.1200
     43 H43         1.4005   -0.3595   48.2776 H       1  ZINC000481050680    0.1300
     44 H44         0.2372   -2.4384   48.8992 H       1  ZINC000481050680    0.1300
     45 H45        -1.9990   -2.9189   47.9890 H       1  ZINC000481050680    0.1300
     46 H46        -3.0746   -1.3204   46.4559 H       1  ZINC000481050680    0.1400
     47 H47        -4.1287    2.1644   50.6707 H       1  ZINC000481050680    0.1600
@<TRIPOS>BOND
     1     1     2    3
     2     2     3    1
     3     3    30   ar
     4     3     4   ar
     5     4     5   ar
     6     4    31    1
     7     5     6   ar
     8     5    32    1
     9     6     7    1
    10     6    28   ar
    11     7     8    1
    12     7    33    1
    13     7    34    1
    14     8     9    2
    15     8    10    2
    16     8    11   am
    17    11    12    1
    18    11    35    1
    19    12    13    1
    20    12    14    1
    21    12    21    1
    22    14    15    1
    23    14    36    1
    24    14    37    1
    25    15    20   ar
    26    15    16   ar
    27    16    17   ar
    28    16    38    1
    29    17    18   ar
    30    17    39    1
    31    18    19   ar
    32    18    40    1
    33    19    20   ar
    34    19    41    1
    35    20    42    1
    36    21    26   ar
    37    21    22   ar
    38    22    23   ar
    39    22    43    1
    40    23    24   ar
    41    23    44    1
    42    24    25   ar
    43    24    45    1
    44    25    26   ar
    45    25    46    1
    46    26    27    1
    47    28    29    1
    48    28    30   ar
    49    30    47    1
@<TRIPOS>SUBSTRUCTURE
     1 ZINC000481050680        1 TEMP              0 ****  ****    0 ROOT


##########                                Name:    ZINC000252489163
##########                DOCK_Rotatable_Bonds:                   6
##########                         Heavy_Atoms:                  25
##########                    Molecular_Weight:             379.403
##########                DOCK_Rotatable_Bonds:                   6
##########                       Formal_Charge:          0.00999963
##########                     HBond_Acceptors:                  10
##########                        HBond_Donors:                   2
##########                         Heavy_Atoms:                  25
##########                          Grid_Score:          -28.929796
##########                     Grid_vdw_energy:          -27.135147
##########                      Grid_es_energy:           -1.794649
##########           Internal_energy_repulsive:           10.437937

@<TRIPOS>MOLECULE
ZINC000252489163
 45 46 1 0 0
SMALL
USER_CHARGES


@<TRIPOS>ATOM
      1 C1          0.3184    3.5653   46.9370 C.3     1  ZINC000252489163   -0.1100
      2 C2         -0.6716    2.7179   47.6939 C.ar    1  ZINC000252489163   -0.0600
      3 C3         -1.5022    3.2993   48.6314 C.ar    1  ZINC000252489163   -0.1300
      4 C4         -2.4147    2.5179   49.3283 C.ar    1  ZINC000252489163    0.1700
      5 N5         -3.2584    3.1041   50.2786 N.am    1  ZINC000252489163   -0.6800
      6 C6         -2.7510    3.5565   51.4424 C.2     1  ZINC000252489163    0.7100
      7 O7         -1.5602    3.4553   51.6666 O.2     1  ZINC000252489163   -0.5500
      8 N8         -3.5635    4.1211   52.3576 N.am    1  ZINC000252489163   -0.6200
      9 C9         -3.0253    4.6189   53.6308 C.3     1  ZINC000252489163    0.1000
     10 C10        -3.8149    3.9862   54.7810 C.3     1  ZINC000252489163   -0.1400
     11 C11        -5.3074    4.2586   54.5802 C.3     1  ZINC000252489163   -0.1300
     12 C12        -5.7718    3.6224   53.2680 C.3     1  ZINC000252489163    0.1400
     13 H13        -5.5784    2.5501   53.2953 H       1  ZINC000252489163    0.0900
     14 N14        -7.2074    3.8562   53.0924 N.am    1  ZINC000252489163   -1.1100
     15 S15        -8.2998    2.7227   53.6066 S.o2    1  ZINC000252489163    2.6100
     16 C16        -9.9170    3.4306   53.1891 C.3     1  ZINC000252489163   -0.6700
     17 O17        -8.0302    1.5848   52.7995 O.2     1  ZINC000252489163   -0.9500
     18 O18        -8.1231    2.6799   55.0160 O.2     1  ZINC000252489163   -0.9500
     19 C19        -5.0033    4.2561   52.0984 C.3     1  ZINC000252489163    0.1100
     20 C20        -2.4884    1.1538   49.0799 C.ar    1  ZINC000252489163   -0.1000
     21 C21        -1.6546    0.5782   48.1409 C.ar    1  ZINC000252489163   -0.1600
     22 C22        -1.7339   -0.9023   47.8706 C.3     1  ZINC000252489163    0.5100
     23 F23        -0.4727   -1.4784   48.0567 F       1  ZINC000252489163   -0.1700
     24 F24        -2.6491   -1.4887   48.7514 F       1  ZINC000252489163   -0.1800
     25 F25        -2.1535   -1.1140   46.5529 F       1  ZINC000252489163   -0.1800
     26 C26        -0.7510    1.3599   47.4450 C.ar    1  ZINC000252489163   -0.0900
     27 H27        -0.1481    3.9441   46.0276 H       1  ZINC000252489163    0.0800
     28 H28         0.6317    4.4026   47.5606 H       1  ZINC000252489163    0.0700
     29 H29         1.1877    2.9620   46.6752 H       1  ZINC000252489163    0.0700
     30 H30        -1.4424    4.3606   48.8226 H       1  ZINC000252489163    0.1300
     31 H31        -4.2083    3.1849   50.0997 H       1  ZINC000252489163    0.4100
     32 H32        -1.9737    4.3445   53.7152 H       1  ZINC000252489163    0.0800
     33 H33        -3.1264    5.7034   53.6712 H       1  ZINC000252489163    0.0800
     34 H34        -3.6400    2.9105   54.7939 H       1  ZINC000252489163    0.0700
     35 H35        -3.4901    4.4196   55.7269 H       1  ZINC000252489163    0.0900
     36 H36        -5.8696    3.8307   55.4102 H       1  ZINC000252489163    0.0800
     37 H37        -5.4784    5.3345   54.5425 H       1  ZINC000252489163    0.0800
     38 H38        -7.5179    4.6748   52.6750 H       1  ZINC000252489163    0.4200
     39 H39        -9.9754    3.5933   52.1129 H       1  ZINC000252489163    0.1300
     40 H40       -10.7048    2.7427   53.4959 H       1  ZINC000252489163    0.1300
     41 H41       -10.0424    4.3812   53.7075 H       1  ZINC000252489163    0.1300
     42 H42        -5.2680    5.3102   52.0156 H       1  ZINC000252489163    0.0800
     43 H43        -5.2566    3.7398   51.1724 H       1  ZINC000252489163    0.1100
     44 H44        -3.1966    0.5434   49.6205 H       1  ZINC000252489163    0.1800
     45 H45        -0.1005    0.9076   46.7111 H       1  ZINC000252489163    0.1300
@<TRIPOS>BOND
     1     1     2    1
     2     1    27    1
     3     1    28    1
     4     1    29    1
     5     2    26   ar
     6     2     3   ar
     7     3     4   ar
     8     3    30    1
     9     4     5    1
    10     4    20   ar
    11     5     6   am
    12     5    31    1
    13     6     7    2
    14     6     8   am
    15     8    19    1
    16     8     9    1
    17     9    10    1
    18     9    32    1
    19     9    33    1
    20    10    11    1
    21    10    34    1
    22    10    35    1
    23    11    12    1
    24    11    36    1
    25    11    37    1
    26    12    13    1
    27    12    14    1
    28    12    19    1
    29    14    15   am
    30    14    38    1
    31    15    16    1
    32    15    17    2
    33    15    18    2
    34    16    39    1
    35    16    40    1
    36    16    41    1
    37    19    42    1
    38    19    43    1
    39    20    21   ar
    40    20    44    1
    41    21    22    1
    42    21    26   ar
    43    22    23    1
    44    22    24    1
    45    22    25    1
    46    26    45    1
@<TRIPOS>SUBSTRUCTURE
     1 ZINC000252489163        1 TEMP              0 ****  ****    0 ROOT


##########                                Name:    ZINC000572148596
##########                DOCK_Rotatable_Bonds:                   4
##########                         Heavy_Atoms:                  26
##########                    Molecular_Weight:             371.463
##########                DOCK_Rotatable_Bonds:                   4
##########                       Formal_Charge:          -0.0199999
##########                     HBond_Acceptors:                   8
##########                        HBond_Donors:                   0
##########                         Heavy_Atoms:                  26
##########                          Grid_Score:          -28.918932
##########                     Grid_vdw_energy:          -28.605482
##########                      Grid_es_energy:           -0.313450
##########           Internal_energy_repulsive:            7.589721

@<TRIPOS>MOLECULE
ZINC000572148596
 47 50 1 0 0
SMALL
USER_CHARGES


@<TRIPOS>ATOM
      1 C1         -6.7746    5.8804   54.7462 C.3     1  ZINC000572148596   -0.1400
      2 C2         -6.6025    4.5811   53.9567 C.3     1  ZINC000572148596    0.0800
      3 H3         -7.5563    4.2973   53.5117 H       1  ZINC000572148596    0.1200
      4 C4         -5.5814    4.7865   52.8676 C.2     1  ZINC000572148596    0.1800
      5 N5         -5.2390    5.9253   52.3413 N.2     1  ZINC000572148596   -0.3500
      6 O6         -4.3919    5.7617   51.4888 O.3     1  ZINC000572148596    0.0900
      7 C7         -4.1012    4.4554   51.3848 C.2     1  ZINC000572148596    0.2300
      8 C8         -3.1232    3.8400   50.4661 C.ar    1  ZINC000572148596   -0.1200
      9 C9         -2.2405    4.6405   49.7266 C.ar    1  ZINC000572148596   -0.0100
     10 C10        -1.3499    4.0268   48.8864 C.ar    1  ZINC000572148596   -0.1900
     11 C11        -1.3462    2.6371   48.7911 C.ar    1  ZINC000572148596    0.3400
     12 N12        -0.4457    2.0126   47.9420 N.3     1  ZINC000572148596   -0.4700
     13 C13         0.9328    2.4291   48.2374 C.3     1  ZINC000572148596    0.0300
     14 C14         1.8966    1.6728   47.3191 C.3     1  ZINC000572148596    0.0900
     15 H15         2.9148    2.0199   47.4951 H       1  ZINC000572148596    0.1100
     16 C16         1.8104    0.1734   47.6116 C.3     1  ZINC000572148596   -0.1800
     17 O17         1.5379    1.9156   45.9562 O.3     1  ZINC000572148596   -0.3700
     18 C18         0.2017    1.5212   45.6334 C.3     1  ZINC000572148596    0.0800
     19 H19         0.0904    0.4487   45.7923 H       1  ZINC000572148596    0.0700
     20 C20        -0.0893    1.8537   44.1686 C.3     1  ZINC000572148596   -0.1400
     21 C21        -0.7792    2.2760   46.5346 C.3     1  ZINC000572148596    0.0300
     22 N22        -2.1916    1.9034   49.5016 N.ar    1  ZINC000572148596   -0.5200
     23 C23        -3.0598    2.4531   50.3253 C.ar    1  ZINC000572148596    0.1900
     24 N24        -4.8569    3.8281   52.2698 N.2     1  ZINC000572148596   -0.4700
     25 C25        -6.1358    3.4882   54.8834 C.2     1  ZINC000572148596    0.0400
     26 N26        -6.9013    2.6011   55.4236 N.2     1  ZINC000572148596   -0.4500
     27 C27        -6.3291    1.7131   56.2114 C.2     1  ZINC000572148596    0.0400
     28 C28        -5.0072    1.8593   56.3431 C.2     1  ZINC000572148596   -0.2500
     29 S29        -4.5143    3.2398   55.3654 S.3     1  ZINC000572148596    0.1400
     30 H30        -5.8208    6.1641   55.1912 H       1  ZINC000572148596    0.0800
     31 H31        -7.1122    6.6708   54.0759 H       1  ZINC000572148596    0.0700
     32 H32        -7.5132    5.7318   55.5338 H       1  ZINC000572148596    0.0800
     33 H33        -2.2627    5.7164   49.8174 H       1  ZINC000572148596    0.1500
     34 H34        -0.6571    4.6149   48.3028 H       1  ZINC000572148596    0.1500
     35 H35         1.0337    3.5010   48.0672 H       1  ZINC000572148596    0.0600
     36 H36         1.1669    2.2013   49.2773 H       1  ZINC000572148596    0.1000
     37 H37         0.7923   -0.1734   47.4341 H       1  ZINC000572148596    0.0700
     38 H38         2.4967   -0.3644   46.9576 H       1  ZINC000572148596    0.0600
     39 H39         2.0805   -0.0100   48.6516 H       1  ZINC000572148596    0.0700
     40 H40         0.6118    1.3185   43.5283 H       1  ZINC000572148596    0.0700
     41 H41        -1.1079    1.5528   43.9232 H       1  ZINC000572148596    0.0700
     42 H42         0.0206    2.9266   44.0107 H       1  ZINC000572148596    0.0600
     43 H43        -1.7949    1.9366   46.3315 H       1  ZINC000572148596    0.1000
     44 H44        -0.7057    3.3454   46.3371 H       1  ZINC000572148596    0.0600
     45 H45        -3.7345    1.8260   50.8893 H       1  ZINC000572148596    0.1700
     46 H46        -6.8829    0.9314   56.7100 H       1  ZINC000572148596    0.1800
     47 H47        -4.3556    1.2386   56.9402 H       1  ZINC000572148596    0.1800
@<TRIPOS>BOND
     1     1     2    1
     2     1    30    1
     3     1    31    1
     4     1    32    1
     5     2     3    1
     6     2     4    1
     7     2    25    1
     8     4    24    1
     9     4     5    2
    10     5     6    1
    11     6     7    1
    12     7     8    1
    13     7    24    2
    14     8    23   ar
    15     8     9   ar
    16     9    10   ar
    17     9    33    1
    18    10    11   ar
    19    10    34    1
    20    11    12    1
    21    11    22   ar
    22    12    21    1
    23    12    13    1
    24    13    14    1
    25    13    35    1
    26    13    36    1
    27    14    15    1
    28    14    16    1
    29    14    17    1
    30    16    37    1
    31    16    38    1
    32    16    39    1
    33    17    18    1
    34    18    19    1
    35    18    20    1
    36    18    21    1
    37    20    40    1
    38    20    41    1
    39    20    42    1
    40    21    43    1
    41    21    44    1
    42    22    23   ar
    43    23    45    1
    44    25    29    1
    45    25    26    2
    46    26    27    1
    47    27    28    2
    48    27    46    1
    49    28    29    1
    50    28    47    1
@<TRIPOS>SUBSTRUCTURE
     1 ZINC000572148596        1 TEMP              0 ****  ****    0 ROOT


##########                                Name:    ZINC000797321835
##########                DOCK_Rotatable_Bonds:                   4
##########                         Heavy_Atoms:                  22
##########                    Molecular_Weight:             381.253
##########                DOCK_Rotatable_Bonds:                   4
##########                       Formal_Charge:           0.0200001
##########                     HBond_Acceptors:                   7
##########                        HBond_Donors:                   1
##########                         Heavy_Atoms:                  22
##########                          Grid_Score:          -28.912373
##########                     Grid_vdw_energy:          -26.705929
##########                      Grid_es_energy:           -2.206443
##########           Internal_energy_repulsive:           16.488989

@<TRIPOS>MOLECULE
ZINC000797321835
 35 37 1 0 0
SMALL
USER_CHARGES


@<TRIPOS>ATOM
      1 C1         -4.7974    3.9451   54.0564 C.3     1  ZINC000797321835    0.1000
      2 N2         -3.8395    3.4931   55.0685 N.am    1  ZINC000797321835   -0.6000
      3 C3         -4.1769    2.8414   56.1947 C.2     1  ZINC000797321835    0.5200
      4 O4         -5.3098    2.5525   56.5171 O.2     1  ZINC000797321835   -0.5200
      5 C5         -2.9380    2.5202   57.0010 C.3     1  ZINC000797321835   -0.1500
      6 C6         -1.7749    2.7046   55.9988 C.3     1  ZINC000797321835   -0.1200
      7 C7         -2.3876    3.6883   54.9801 C.3     1  ZINC000797321835    0.1200
      8 H8         -2.1341    4.7142   55.2469 H       1  ZINC000797321835    0.1100
      9 C9         -1.8948    3.3746   53.5909 C.2     1  ZINC000797321835    0.4900
     10 O10        -0.8272    2.8201   53.4369 O.2     1  ZINC000797321835   -0.4400
     11 N11        -2.6405    3.7103   52.5196 N.am    1  ZINC000797321835   -0.6500
     12 C12        -2.1845    3.4200   51.2339 C.ar    1  ZINC000797321835    0.3000
     13 C13        -0.9845    3.9678   50.7788 C.ar    1  ZINC000797321835   -0.1400
     14 C14        -0.5705    3.6524   49.4974 C.ar    1  ZINC000797321835   -0.0800
     15 C15        -1.3828    2.8019   48.7358 C.ar    1  ZINC000797321835    0.1100
     16 C16        -0.9869    2.4330   47.3618 C.2     1  ZINC000797321835   -0.1400
     17 C17        -1.4229    1.3475   46.6908 C.2     1  ZINC000797321835   -0.0900
     18 C18        -0.9117    1.2131   45.4172 C.2     1  ZINC000797321835   -0.0900
     19 C19        -0.0634    2.1774   45.0428 C.2     1  ZINC000797321835   -0.2000
     20 Br20        0.8012    2.2743   43.3638 Br      1  ZINC000797321835    0.0200
     21 S21         0.1206    3.3454   46.3446 S.3     1  ZINC000797321835    0.1900
     22 N22        -2.5103    2.3282   49.2550 N.ar    1  ZINC000797321835   -0.1900
     23 N23        -2.8874    2.6201   50.4467 N.ar    1  ZINC000797321835   -0.2200
     24 H24        -4.9438    3.1575   53.3173 H       1  ZINC000797321835    0.0700
     25 H25        -5.7493    4.1761   54.5346 H       1  ZINC000797321835    0.0800
     26 H26        -4.4118    4.8381   53.5643 H       1  ZINC000797321835    0.0700
     27 H27        -2.8357    3.2136   57.8358 H       1  ZINC000797321835    0.1100
     28 H28        -2.9725    1.4917   57.3603 H       1  ZINC000797321835    0.1100
     29 H29        -0.9031    3.1386   56.4885 H       1  ZINC000797321835    0.1100
     30 H30        -1.5205    1.7598   55.5185 H       1  ZINC000797321835    0.0900
     31 H31        -3.4944    4.1537   52.6428 H       1  ZINC000797321835    0.4200
     32 H32        -0.3965    4.6191   51.4085 H       1  ZINC000797321835    0.1600
     33 H33         0.3501    4.0497   49.0962 H       1  ZINC000797321835    0.1500
     34 H34        -2.1176    0.6392   47.1175 H       1  ZINC000797321835    0.1600
     35 H35        -1.1762    0.3901   44.7700 H       1  ZINC000797321835    0.1600
@<TRIPOS>BOND
     1     1     2    1
     2     1    24    1
     3     1    25    1
     4     1    26    1
     5     2     7    1
     6     2     3   am
     7     3     4    2
     8     3     5    1
     9     5     6    1
    10     5    27    1
    11     5    28    1
    12     6     7    1
    13     6    29    1
    14     6    30    1
    15     7     8    1
    16     7     9    1
    17     9    10    2
    18     9    11   am
    19    11    12    1
    20    11    31    1
    21    12    23   ar
    22    12    13   ar
    23    13    14   ar
    24    13    32    1
    25    14    15   ar
    26    14    33    1
    27    15    16    1
    28    15    22   ar
    29    16    21    1
    30    16    17    2
    31    17    18    1
    32    17    34    1
    33    18    19    2
    34    18    35    1
    35    19    20    1
    36    19    21    1
    37    22    23   ar
@<TRIPOS>SUBSTRUCTURE
     1 ZINC000797321835        1 TEMP              0 ****  ****    0 ROOT


##########                                Name:    ZINC000506156755
##########                DOCK_Rotatable_Bonds:                   7
##########                         Heavy_Atoms:                  30
##########                    Molecular_Weight:             400.434
##########                DOCK_Rotatable_Bonds:                   7
##########                       Formal_Charge:          -0.0200001
##########                     HBond_Acceptors:                   6
##########                        HBond_Donors:                   1
##########                         Heavy_Atoms:                  30
##########                          Grid_Score:          -28.900965
##########                     Grid_vdw_energy:          -28.660749
##########                      Grid_es_energy:           -0.240215
##########           Internal_energy_repulsive:           12.956260

@<TRIPOS>MOLECULE
ZINC000506156755
 50 53 1 0 0
SMALL
USER_CHARGES


@<TRIPOS>ATOM
      1 C1         -2.6531    5.8089   54.7104 C.3     1  ZINC000506156755   -0.1600
      2 C2         -2.6971    4.3637   54.2103 C.3     1  ZINC000506156755    0.1900
      3 H3         -1.7186    3.9027   54.3448 H       1  ZINC000506156755    0.1000
      4 N4         -3.0526    4.3492   52.7891 N.am    1  ZINC000506156755   -0.7200
      5 C5         -2.0890    4.4514   51.8524 C.2     1  ZINC000506156755    0.5000
      6 O6         -0.9277    4.5567   52.1860 O.2     1  ZINC000506156755   -0.5200
      7 C7         -2.4545    4.4347   50.3905 C.3     1  ZINC000506156755    0.0900
      8 N8         -1.8201    3.2846   49.7416 N.am    1  ZINC000506156755   -0.5600
      9 C9         -0.6077    3.3124   49.1593 C.2     1  ZINC000506156755    0.5800
     10 O10         0.1231    4.2799   49.0893 O.2     1  ZINC000506156755   -0.4600
     11 C11        -0.3134    1.9681   48.6197 C.ar    1  ZINC000506156755   -0.1400
     12 C12         0.7553    1.4130   47.9351 C.ar    1  ZINC000506156755   -0.0400
     13 C13         0.7137    0.0784   47.5615 C.ar    1  ZINC000506156755   -0.0900
     14 C14        -0.3858   -0.7007   47.8673 C.ar    1  ZINC000506156755   -0.0900
     15 C15        -1.4628   -0.1587   48.5520 C.ar    1  ZINC000506156755   -0.0400
     16 C16        -1.4353    1.1732   48.9317 C.ar    1  ZINC000506156755   -0.1400
     17 C17        -2.3708    2.0604   49.6547 C.2     1  ZINC000506156755    0.5800
     18 O18        -3.4559    1.7384   50.0950 O.2     1  ZINC000506156755   -0.4600
     19 C19        -3.7277    3.5922   54.9938 C.ar    1  ZINC000506156755   -0.1200
     20 C20        -5.0409    4.0194   55.0166 C.ar    1  ZINC000506156755   -0.0800
     21 C21        -5.9872    3.3118   55.7350 C.ar    1  ZINC000506156755   -0.1400
     22 C22        -5.6218    2.1750   56.4319 C.ar    1  ZINC000506156755   -0.0800
     23 C23        -4.3096    1.7433   56.4123 C.ar    1  ZINC000506156755   -0.1900
     24 C24        -3.3593    2.4485   55.6882 C.ar    1  ZINC000506156755    0.1300
     25 O25        -2.0680    2.0257   55.6669 O.3     1  ZINC000506156755   -0.2500
     26 C26        -1.2146    2.5355   56.5933 C.ar    1  ZINC000506156755    0.0800
     27 C27        -1.6880    3.3894   57.5792 C.ar    1  ZINC000506156755   -0.1400
     28 C28        -0.8181    3.9062   58.5197 C.ar    1  ZINC000506156755   -0.1000
     29 C29         0.5233    3.5735   58.4790 C.ar    1  ZINC000506156755   -0.1200
     30 C30         0.9977    2.7229   57.4976 C.ar    1  ZINC000506156755   -0.1000
     31 C31         0.1311    2.1986   56.5582 C.ar    1  ZINC000506156755   -0.1200
     32 H32        -1.9077    6.3669   54.1437 H       1  ZINC000506156755    0.0700
     33 H33        -3.6316    6.2699   54.5759 H       1  ZINC000506156755    0.0600
     34 H34        -2.3886    5.8196   55.7678 H       1  ZINC000506156755    0.0700
     35 H35        -3.9815    4.2661   52.5224 H       1  ZINC000506156755    0.4000
     36 H36        -3.5369    4.3586   50.2875 H       1  ZINC000506156755    0.1300
     37 H37        -2.1084    5.3545   49.9190 H       1  ZINC000506156755    0.1300
     38 H38         1.6170    2.0173   47.6931 H       1  ZINC000506156755    0.1400
     39 H39         1.5463   -0.3551   47.0274 H       1  ZINC000506156755    0.1400
     40 H40        -0.4067   -1.7389   47.5705 H       1  ZINC000506156755    0.1400
     41 H41        -2.3194   -0.7724   48.7888 H       1  ZINC000506156755    0.1400
     42 H42        -5.3290    4.9073   54.4733 H       1  ZINC000506156755    0.1300
     43 H43        -7.0135    3.6478   55.7518 H       1  ZINC000506156755    0.1300
     44 H44        -6.3627    1.6242   56.9924 H       1  ZINC000506156755    0.1300
     45 H45        -4.0246    0.8555   56.9572 H       1  ZINC000506156755    0.1300
     46 H46        -2.7356    3.6498   57.6112 H       1  ZINC000506156755    0.1300
     47 H47        -1.1861    4.5711   59.2871 H       1  ZINC000506156755    0.1300
     48 H48         1.2018    3.9790   59.2150 H       1  ZINC000506156755    0.1300
     49 H49         2.0460    2.4645   57.4681 H       1  ZINC000506156755    0.1300
     50 H50         0.5020    1.5341   55.7920 H       1  ZINC000506156755    0.1300
@<TRIPOS>BOND
     1     1     2    1
     2     1    32    1
     3     1    33    1
     4     1    34    1
     5     2     3    1
     6     2     4    1
     7     2    19    1
     8     4     5   am
     9     4    35    1
    10     5     6    2
    11     5     7    1
    12     7     8    1
    13     7    36    1
    14     7    37    1
    15     8    17   am
    16     8     9   am
    17     9    10    2
    18     9    11    1
    19    11    16   ar
    20    11    12   ar
    21    12    13   ar
    22    12    38    1
    23    13    14   ar
    24    13    39    1
    25    14    15   ar
    26    14    40    1
    27    15    16   ar
    28    15    41    1
    29    16    17    1
    30    17    18    2
    31    19    24   ar
    32    19    20   ar
    33    20    21   ar
    34    20    42    1
    35    21    22   ar
    36    21    43    1
    37    22    23   ar
    38    22    44    1
    39    23    24   ar
    40    23    45    1
    41    24    25    1
    42    25    26    1
    43    26    31   ar
    44    26    27   ar
    45    27    28   ar
    46    27    46    1
    47    28    29   ar
    48    28    47    1
    49    29    30   ar
    50    29    48    1
    51    30    31   ar
    52    30    49    1
    53    31    50    1
@<TRIPOS>SUBSTRUCTURE
     1 ZINC000506156755        1 TEMP              0 ****  ****    0 ROOT


##########                                Name:    ZINC000055987960
##########                DOCK_Rotatable_Bonds:                   6
##########                         Heavy_Atoms:                  28
##########                    Molecular_Weight:             404.868
##########                DOCK_Rotatable_Bonds:                   6
##########                       Formal_Charge:          0.00999941
##########                     HBond_Acceptors:                   7
##########                        HBond_Donors:                   1
##########                         Heavy_Atoms:                  28
##########                          Grid_Score:          -28.900116
##########                     Grid_vdw_energy:          -28.877481
##########                      Grid_es_energy:           -0.022635
##########           Internal_energy_repulsive:           16.327602

@<TRIPOS>MOLECULE
ZINC000055987960
 50 52 1 0 0
SMALL
USER_CHARGES


@<TRIPOS>ATOM
      1 C1         -0.4670    6.3543   56.4947 C.3     1  ZINC000055987960   -0.1800
      2 C2         -1.9464    6.1900   56.8486 C.3     1  ZINC000055987960    0.0700
      3 H3         -2.1857    6.8128   57.7106 H       1  ZINC000055987960    0.1200
      4 C4         -2.8087    6.6151   55.6547 C.3     1  ZINC000055987960    0.0800
      5 N5         -2.6038    5.6465   54.5660 N.am    1  ZINC000055987960   -0.6100
      6 C6         -2.3014    6.0582   53.3188 C.2     1  ZINC000055987960    0.5700
      7 O7         -2.1943    7.2456   53.0799 O.2     1  ZINC000055987960   -0.5300
      8 C8         -2.1004    5.0679   52.2431 C.ar    1  ZINC000055987960   -0.1500
      9 C9         -0.8377    4.9074   51.6661 C.ar    1  ZINC000055987960   -0.0700
     10 C10        -0.6535    3.9824   50.6631 C.ar    1  ZINC000055987960   -0.1500
     11 C11        -1.7228    3.2080   50.2239 C.ar    1  ZINC000055987960    0.1700
     12 N12        -1.5326    2.2718   49.2082 N.am    1  ZINC000055987960   -0.6700
     13 C13        -1.0395    2.6617   48.0160 C.2     1  ZINC000055987960    0.5200
     14 O14        -0.7612    3.8269   47.8266 O.2     1  ZINC000055987960   -0.5000
     15 C15        -0.8339    1.6500   46.9182 C.3     1  ZINC000055987960   -0.1100
     16 C16        -0.7870    0.2661   47.5127 C.ar    1  ZINC000055987960   -0.1000
     17 C17        -1.9615   -0.4296   47.7413 C.ar    1  ZINC000055987960    0.1300
     18 F18        -3.1508    0.1317   47.4316 F       1  ZINC000055987960   -0.1300
     19 C19        -1.9170   -1.7016   48.2873 C.ar    1  ZINC000055987960   -0.1500
     20 C20        -0.7004   -2.2755   48.6035 C.ar    1  ZINC000055987960   -0.0700
     21 C21         0.4728   -1.5807   48.3752 C.ar    1  ZINC000055987960   -0.1200
     22 C22         0.4304   -0.3121   47.8250 C.ar    1  ZINC000055987960    0.0000
     23 Cl23        1.9042    0.5593   47.5382 Cl      1  ZINC000055987960   -0.0500
     24 C24        -2.9811    3.3653   50.7962 C.ar    1  ZINC000055987960   -0.1200
     25 C25        -3.1710    4.2847   51.8031 C.ar    1  ZINC000055987960   -0.0500
     26 C26        -2.7383    4.2150   54.8794 C.3     1  ZINC000055987960    0.0600
     27 C27        -1.8793    3.9069   56.1111 C.3     1  ZINC000055987960    0.0700
     28 H28        -0.8251    4.0157   55.8562 H       1  ZINC000055987960    0.0700
     29 C29        -2.1476    2.4741   56.5759 C.3     1  ZINC000055987960   -0.1500
     30 O30        -2.2137    4.8206   57.1599 O.3     1  ZINC000055987960   -0.3700
     31 H31        -0.2283    5.7313   55.6327 H       1  ZINC000055987960    0.0600
     32 H32        -0.2642    7.3983   56.2558 H       1  ZINC000055987960    0.0700
     33 H33         0.1456    6.0502   57.3434 H       1  ZINC000055987960    0.0700
     34 H34        -3.8593    6.6239   55.9453 H       1  ZINC000055987960    0.0800
     35 H35        -2.5110    7.6094   55.3223 H       1  ZINC000055987960    0.1000
     36 H36        -0.0075    5.5084   52.0063 H       1  ZINC000055987960    0.1400
     37 H37         0.3219    3.8581   50.2164 H       1  ZINC000055987960    0.1300
     38 H38        -1.7552    1.3400   49.3596 H       1  ZINC000055987960    0.4200
     39 H39        -1.6582    1.7125   46.2076 H       1  ZINC000055987960    0.1200
     40 H40         0.1049    1.8569   46.4045 H       1  ZINC000055987960    0.1200
     41 H41        -2.8331   -2.2448   48.4662 H       1  ZINC000055987960    0.1500
     42 H42        -0.6661   -3.2673   49.0296 H       1  ZINC000055987960    0.1500
     43 H43         1.4231   -2.0299   48.6231 H       1  ZINC000055987960    0.1400
     44 H44        -3.8090    2.7629   50.4527 H       1  ZINC000055987960    0.1500
     45 H45        -4.1479    4.4064   52.2471 H       1  ZINC000055987960    0.1300
     46 H46        -3.7817    3.9822   55.0919 H       1  ZINC000055987960    0.0800
     47 H47        -2.3939    3.6201   54.0335 H       1  ZINC000055987960    0.1100
     48 H48        -1.8958    1.7792   55.7748 H       1  ZINC000055987960    0.0700
     49 H49        -1.5365    2.2559   57.4517 H       1  ZINC000055987960    0.0700
     50 H50        -3.2015    2.3667   56.8323 H       1  ZINC000055987960    0.0700
@<TRIPOS>BOND
     1     1     2    1
     2     1    31    1
     3     1    32    1
     4     1    33    1
     5     2     3    1
     6     2    30    1
     7     2     4    1
     8     4     5    1
     9     4    34    1
    10     4    35    1
    11     5     6   am
    12     5    26    1
    13     6     7    2
    14     6     8    1
    15     8    25   ar
    16     8     9   ar
    17     9    10   ar
    18     9    36    1
    19    10    11   ar
    20    10    37    1
    21    11    12    1
    22    11    24   ar
    23    12    13   am
    24    12    38    1
    25    13    14    2
    26    13    15    1
    27    15    16    1
    28    15    39    1
    29    15    40    1
    30    16    22   ar
    31    16    17   ar
    32    17    18    1
    33    17    19   ar
    34    19    20   ar
    35    19    41    1
    36    20    21   ar
    37    20    42    1
    38    21    22   ar
    39    21    43    1
    40    22    23    1
    41    24    25   ar
    42    24    44    1
    43    25    45    1
    44    26    27    1
    45    26    46    1
    46    26    47    1
    47    27    28    1
    48    27    29    1
    49    27    30    1
    50    29    48    1
    51    29    49    1
    52    29    50    1
@<TRIPOS>SUBSTRUCTURE
     1 ZINC000055987960        1 TEMP              0 ****  ****    0 ROOT


##########                                Name:    ZINC000047262406
##########                DOCK_Rotatable_Bonds:                   6
##########                         Heavy_Atoms:                  28
##########                    Molecular_Weight:             417.919
##########                DOCK_Rotatable_Bonds:                   6
##########                       Formal_Charge:          -0.0100002
##########                     HBond_Acceptors:                   9
##########                        HBond_Donors:                   1
##########                         Heavy_Atoms:                  28
##########                          Grid_Score:          -28.886307
##########                     Grid_vdw_energy:          -28.730124
##########                      Grid_es_energy:           -0.156183
##########           Internal_energy_repulsive:           12.173397

@<TRIPOS>MOLECULE
ZINC000047262406
 48 51 1 0 0
SMALL
USER_CHARGES


@<TRIPOS>ATOM
      1 C1         -8.1576   -0.3653   62.6921 C.3     1  ZINC000047262406   -0.1500
      2 C2         -9.2238    0.3578   61.8667 C.3     1  ZINC000047262406    0.1800
      3 H3         -9.7101    1.1136   62.4836 H       1  ZINC000047262406    0.0800
      4 C4        -10.2500   -0.6373   61.3894 C.2     1  ZINC000047262406    0.1700
      5 N5        -10.0873   -1.9272   61.3010 N.2     1  ZINC000047262406   -0.2500
      6 N6        -11.1663   -2.4687   60.8563 N.2     1  ZINC000047262406   -0.2700
      7 C7        -12.0649   -1.5321   60.6433 C.2     1  ZINC000047262406    0.2400
      8 C8        -13.4306   -1.7320   60.1360 C.2     1  ZINC000047262406   -0.1500
      9 C9        -14.3131   -0.7390   59.8379 C.2     1  ZINC000047262406   -0.0600
     10 C10       -15.5339   -1.1806   59.3775 C.2     1  ZINC000047262406   -0.1400
     11 C11       -15.6643   -2.5086   59.2946 C.2     1  ZINC000047262406   -0.1900
     12 S12       -14.1775   -3.2912   59.8123 S.3     1  ZINC000047262406    0.1700
     13 O13       -11.5012   -0.3546   60.9833 O.3     1  ZINC000047262406   -0.2200
     14 N14        -8.5920    1.0034   60.7084 N.3     1  ZINC000047262406   -0.5200
     15 C15        -9.0654    2.3847   60.5526 C.3     1  ZINC000047262406    0.0500
     16 C16        -8.2823    3.0703   59.4307 C.3     1  ZINC000047262406   -0.1000
     17 C17        -8.4817    2.2926   58.1268 C.3     1  ZINC000047262406   -0.1100
     18 C18        -7.6651    2.9284   57.0313 C.2     1  ZINC000047262406    0.5100
     19 O19        -7.7106    4.1281   56.8594 O.2     1  ZINC000047262406   -0.4600
     20 N20        -6.8840    2.1637   56.2428 N.am    1  ZINC000047262406   -0.6600
     21 C21        -6.1283    2.7521   55.2290 C.ar    1  ZINC000047262406    0.3600
     22 C22        -6.6489    2.8365   53.9432 C.ar    1  ZINC000047262406   -0.2000
     23 C23        -5.8891    3.4230   52.9461 C.ar    1  ZINC000047262406   -0.0400
     24 C24        -4.6288    3.9070   53.2719 C.ar    1  ZINC000047262406   -0.1200
     25 Cl25       -3.6347    4.6523   52.0594 Cl      1  ZINC000047262406   -0.0500
     26 C26        -4.1746    3.7893   54.5722 C.ar    1  ZINC000047262406    0.1500
     27 N27        -4.9243    3.2296   55.5019 N.ar    1  ZINC000047262406   -0.4600
     28 C28        -8.0260    0.8450   58.3304 C.3     1  ZINC000047262406   -0.1100
     29 C29        -8.8164    0.2240   59.4842 C.3     1  ZINC000047262406    0.0600
     30 H30        -7.4153    0.3544   63.0373 H       1  ZINC000047262406    0.0800
     31 H31        -8.6264   -0.8444   63.5517 H       1  ZINC000047262406    0.0700
     32 H32        -7.6713   -1.1212   62.0753 H       1  ZINC000047262406    0.0800
     33 H33       -14.0756    0.3083   59.9531 H       1  ZINC000047262406    0.1600
     34 H34       -16.3288   -0.5027   59.1035 H       1  ZINC000047262406    0.1600
     35 H35       -16.5506   -3.0244   58.9556 H       1  ZINC000047262406    0.1800
     36 H36       -10.1267    2.3790   60.3039 H       1  ZINC000047262406    0.0400
     37 H37        -8.9141    2.9279   61.4854 H       1  ZINC000047262406    0.0900
     38 H38        -8.6447    4.0906   59.3049 H       1  ZINC000047262406    0.0800
     39 H39        -7.2226    3.0886   59.6851 H       1  ZINC000047262406    0.0900
     40 H40        -9.5360    2.3082   57.8510 H       1  ZINC000047262406    0.1000
     41 H41        -6.8477    1.2042   56.3803 H       1  ZINC000047262406    0.4200
     42 H42        -7.6332    2.4492   53.7249 H       1  ZINC000047262406    0.1500
     43 H43        -6.2675    3.5022   51.9377 H       1  ZINC000047262406    0.1500
     44 H44        -3.1951    4.1636   54.8308 H       1  ZINC000047262406    0.1700
     45 H45        -8.2051    0.2755   57.4184 H       1  ZINC000047262406    0.0700
     46 H46        -6.9622    0.8284   58.5675 H       1  ZINC000047262406    0.0800
     47 H47        -8.4843   -0.8022   59.6410 H       1  ZINC000047262406    0.0700
     48 H48        -9.8788    0.2285   59.2405 H       1  ZINC000047262406    0.0400
@<TRIPOS>BOND
     1     1     2    1
     2     1    30    1
     3     1    31    1
     4     1    32    1
     5     2     3    1
     6     2     4    1
     7     2    14    1
     8     4    13    1
     9     4     5    2
    10     5     6    1
    11     6     7    2
    12     7     8    1
    13     7    13    1
    14     8    12    1
    15     8     9    2
    16     9    10    1
    17     9    33    1
    18    10    11    2
    19    10    34    1
    20    11    12    1
    21    11    35    1
    22    14    29    1
    23    14    15    1
    24    15    16    1
    25    15    36    1
    26    15    37    1
    27    16    17    1
    28    16    38    1
    29    16    39    1
    30    17    18    1
    31    17    28    1
    32    17    40    1
    33    18    19    2
    34    18    20   am
    35    20    21    1
    36    20    41    1
    37    21    27   ar
    38    21    22   ar
    39    22    23   ar
    40    22    42    1
    41    23    24   ar
    42    23    43    1
    43    24    25    1
    44    24    26   ar
    45    26    27   ar
    46    26    44    1
    47    28    29    1
    48    28    45    1
    49    28    46    1
    50    29    47    1
    51    29    48    1
@<TRIPOS>SUBSTRUCTURE
     1 ZINC000047262406        1 TEMP              0 ****  ****    0 ROOT


##########                                Name:    ZINC001345266033
##########                DOCK_Rotatable_Bonds:                   4
##########                         Heavy_Atoms:                  29
##########                    Molecular_Weight:               389.5
##########                DOCK_Rotatable_Bonds:                   4
##########                       Formal_Charge:          -0.0100001
##########                     HBond_Acceptors:                   6
##########                        HBond_Donors:                   0
##########                         Heavy_Atoms:                  29
##########                          Grid_Score:          -28.885128
##########                     Grid_vdw_energy:          -27.717369
##########                      Grid_es_energy:           -1.167760
##########           Internal_energy_repulsive:            7.864227

@<TRIPOS>MOLECULE
ZINC001345266033
 56 61 1 0 0
SMALL
USER_CHARGES


@<TRIPOS>ATOM
      1 C1        -14.9096   -0.9743   51.6739 C.ar    1  ZINC001345266033   -0.1100
      2 C2        -15.1478   -1.0926   53.0408 C.ar    1  ZINC001345266033   -0.0900
      3 C3        -14.1344   -1.3833   53.9071 C.ar    1  ZINC001345266033   -0.1100
      4 C4        -12.8404   -1.5649   53.4134 C.ar    1  ZINC001345266033    0.0000
      5 C5        -12.5932   -1.4458   52.0216 C.ar    1  ZINC001345266033   -0.1100
      6 C6        -13.6594   -1.1454   51.1598 C.ar    1  ZINC001345266033   -0.0900
      7 C7        -11.2831   -1.6338   51.5521 C.ar    1  ZINC001345266033    0.1700
      8 N8        -10.3050   -1.9137   52.3792 N.ar    1  ZINC001345266033   -0.4800
      9 C9        -10.4625   -2.0394   53.6863 C.ar    1  ZINC001345266033    0.0900
     10 C10       -11.7067   -1.8788   54.2823 C.ar    1  ZINC001345266033   -0.0700
     11 C11       -11.8785   -2.0197   55.7407 C.2     1  ZINC001345266033    0.2300
     12 N12       -12.5565   -2.9595   56.3604 N.2     1  ZINC001345266033   -0.2600
     13 N13       -12.4959   -2.7774   57.6311 N.2     1  ZINC001345266033   -0.3000
     14 C14       -11.7763   -1.7114   57.9008 C.2     1  ZINC001345266033    0.3600
     15 N15       -11.4946   -1.2087   59.1588 N.3     1  ZINC001345266033   -0.4600
     16 C16       -12.5968   -1.4755   60.0908 C.3     1  ZINC001345266033    0.0600
     17 C17       -12.3625   -0.7244   61.4030 C.3     1  ZINC001345266033   -0.1100
     18 C18       -11.0724   -1.2373   62.0540 C.3     1  ZINC001345266033   -0.0800
     19 C19        -9.9335   -1.1197   61.0356 C.3     1  ZINC001345266033   -0.1300
     20 C20        -9.0763    0.1446   61.0706 C.3     1  ZINC001345266033   -0.1600
     21 C21        -8.5001   -1.1861   61.5598 C.3     1  ZINC001345266033   -0.1700
     22 C22       -10.2249   -1.7469   59.6691 C.3     1  ZINC001345266033    0.1100
     23 N23       -11.3540   -1.1953   56.7101 N.pl3   1  ZINC001345266033   -0.4600
     24 C24       -10.5224   -0.0065   56.5058 C.3     1  ZINC001345266033    0.1000
     25 C25       -11.4054    1.1646   56.0702 C.3     1  ZINC001345266033   -0.1400
     26 H26       -12.1482    0.8321   55.3451 H       1  ZINC001345266033    0.1000
     27 C27       -10.5409    2.3035   55.4768 C.3     1  ZINC001345266033   -0.1500
     28 C28       -11.2227    3.5669   56.0610 C.3     1  ZINC001345266033    0.0500
     29 O29       -11.6068    3.1576   57.3912 O.3     1  ZINC001345266033   -0.3700
     30 C30       -12.0930    1.8052   57.2914 C.3     1  ZINC001345266033    0.0300
     31 H31       -15.7305   -0.7476   51.0096 H       1  ZINC001345266033    0.1300
     32 H32       -16.1489   -0.9520   53.4208 H       1  ZINC001345266033    0.1300
     33 H33       -14.3310   -1.4719   54.9653 H       1  ZINC001345266033    0.1600
     34 H34       -13.4903   -1.0511   50.0973 H       1  ZINC001345266033    0.1400
     35 H35       -11.0785   -1.5468   50.4952 H       1  ZINC001345266033    0.1700
     36 H36        -9.6066   -2.2720   54.3026 H       1  ZINC001345266033    0.1700
     37 H37       -13.5351   -1.1437   59.6463 H       1  ZINC001345266033    0.0700
     38 H38       -12.6509   -2.5456   60.2909 H       1  ZINC001345266033    0.0500
     39 H39       -12.2688    0.3425   61.2002 H       1  ZINC001345266033    0.0800
     40 H40       -13.2028   -0.8956   62.0757 H       1  ZINC001345266033    0.0800
     41 H41       -10.8413   -0.6353   62.9328 H       1  ZINC001345266033    0.0700
     42 H42       -11.1982   -2.2804   62.3438 H       1  ZINC001345266033    0.0700
     43 H43        -8.7113    0.5318   60.1193 H       1  ZINC001345266033    0.0900
     44 H44        -9.3175    0.8956   61.8229 H       1  ZINC001345266033    0.0900
     45 H45        -8.3622   -1.3106   62.6338 H       1  ZINC001345266033    0.1000
     46 H46        -7.7561   -1.6743   60.9303 H       1  ZINC001345266033    0.1000
     47 H47       -10.3026   -2.8291   59.7733 H       1  ZINC001345266033    0.0600
     48 H48        -9.4198   -1.5021   58.9761 H       1  ZINC001345266033    0.0800
     49 H49       -10.0161    0.2471   57.4372 H       1  ZINC001345266033    0.1100
     50 H50        -9.7813   -0.2099   55.7330 H       1  ZINC001345266033    0.1100
     51 H51        -9.5084    2.2260   55.8174 H       1  ZINC001345266033    0.0800
     52 H52       -10.5909    2.3029   54.3878 H       1  ZINC001345266033    0.0900
     53 H53       -10.5189    4.3981   56.1033 H       1  ZINC001345266033    0.1000
     54 H54       -12.1007    3.8356   55.4736 H       1  ZINC001345266033    0.0600
     55 H55       -13.1740    1.8094   57.1521 H       1  ZINC001345266033    0.0600
     56 H56       -11.8357    1.2513   58.1943 H       1  ZINC001345266033    0.0900
@<TRIPOS>BOND
     1     1     6   ar
     2     1     2   ar
     3     1    31    1
     4     2     3   ar
     5     2    32    1
     6     3     4   ar
     7     3    33    1
     8     4    10   ar
     9     4     5   ar
    10     5     6   ar
    11     5     7   ar
    12     6    34    1
    13     7     8   ar
    14     7    35    1
    15     8     9   ar
    16     9    10   ar
    17     9    36    1
    18    10    11    1
    19    11    23    1
    20    11    12    2
    21    12    13    1
    22    13    14    2
    23    14    15    1
    24    14    23    1
    25    15    22    1
    26    15    16    1
    27    16    17    1
    28    16    37    1
    29    16    38    1
    30    17    18    1
    31    17    39    1
    32    17    40    1
    33    18    19    1
    34    18    41    1
    35    18    42    1
    36    19    21    1
    37    19    20    1
    38    19    22    1
    39    20    21    1
    40    20    43    1
    41    20    44    1
    42    21    45    1
    43    21    46    1
    44    22    47    1
    45    22    48    1
    46    23    24    1
    47    24    25    1
    48    24    49    1
    49    24    50    1
    50    25    26    1
    51    25    30    1
    52    25    27    1
    53    27    28    1
    54    27    51    1
    55    27    52    1
    56    28    29    1
    57    28    53    1
    58    28    54    1
    59    29    30    1
    60    30    55    1
    61    30    56    1
@<TRIPOS>SUBSTRUCTURE
     1 ZINC001345266033        1 TEMP              0 ****  ****    0 ROOT


##########                                Name:    ZINC001300804061
##########                DOCK_Rotatable_Bonds:                   5
##########                         Heavy_Atoms:                  27
##########                    Molecular_Weight:              390.55
##########                DOCK_Rotatable_Bonds:                   5
##########                       Formal_Charge:                0.01
##########                     HBond_Acceptors:                   7
##########                        HBond_Donors:                   0
##########                         Heavy_Atoms:                  27
##########                          Grid_Score:          -28.877886
##########                     Grid_vdw_energy:          -28.977108
##########                      Grid_es_energy:            0.099223
##########           Internal_energy_repulsive:           17.573824

@<TRIPOS>MOLECULE
ZINC001300804061
 57 60 1 0 0
SMALL
USER_CHARGES


@<TRIPOS>ATOM
      1 C1        -11.2342   -2.6998   54.9770 C.3     1  ZINC001300804061    0.0300
      2 O2        -12.0912   -3.3262   55.9337 O.3     1  ZINC001300804061   -0.3800
      3 C3        -12.5936   -2.4376   56.9336 C.3     1  ZINC001300804061    0.1000
      4 H4        -12.6197   -1.4222   56.5382 H       1  ZINC001300804061    0.0700
      5 C5        -11.6830   -2.4841   58.1626 C.3     1  ZINC001300804061    0.0500
      6 N6        -12.2105   -1.5869   59.1986 N.3     1  ZINC001300804061   -0.4600
      7 C7        -11.3417   -1.5049   60.2735 C.2     1  ZINC001300804061    0.3600
      8 N8        -10.7447   -2.5109   60.8704 N.2     1  ZINC001300804061   -0.3000
      9 N9        -10.0067   -2.0813   61.8306 N.2     1  ZINC001300804061   -0.2500
     10 C10       -10.0874   -0.7709   61.9058 C.2     1  ZINC001300804061    0.2600
     11 C11        -9.3922    0.0949   62.8713 C.2     1  ZINC001300804061    0.0400
     12 C12        -9.9743    1.0380   63.6641 C.2     1  ZINC001300804061   -0.1300
     13 C13        -8.9422    1.6217   64.4240 C.2     1  ZINC001300804061   -0.2100
     14 C14        -7.7939    1.0149   64.0637 C.2     1  ZINC001300804061    0.0100
     15 C15        -6.4273    1.3201   64.6210 C.3     1  ZINC001300804061   -0.0800
     16 O16        -8.0696    0.0894   63.1301 O.3     1  ZINC001300804061   -0.1700
     17 N17       -10.9418   -0.3621   60.9058 N.pl3   1  ZINC001300804061   -0.4600
     18 C18       -11.3442    1.0109   60.5914 C.3     1  ZINC001300804061    0.1200
     19 C19       -10.3390    1.6264   59.6159 C.3     1  ZINC001300804061   -0.1000
     20 H20       -10.7120    2.5916   59.2730 H       1  ZINC001300804061    0.0900
     21 C21       -10.1613    0.6976   58.4184 C.3     1  ZINC001300804061   -0.1200
     22 C22        -9.3795    1.3924   57.3075 C.3     1  ZINC001300804061   -0.1200
     23 C23        -7.9164    1.5617   57.7253 C.3     1  ZINC001300804061   -0.0800
     24 S24        -7.8440    2.6427   59.1845 S.3     1  ZINC001300804061   -0.2600
     25 C25        -8.9969    1.8231   60.3258 C.3     1  ZINC001300804061   -0.0700
     26 C26       -13.5483   -2.0076   59.6342 C.3     1  ZINC001300804061    0.0600
     27 C27       -14.5147   -1.9469   58.4491 C.3     1  ZINC001300804061   -0.1100
     28 C28       -14.0077   -2.8665   57.3348 C.3     1  ZINC001300804061   -0.0900
     29 H29       -13.9874   -3.8958   57.6929 H       1  ZINC001300804061    0.0800
     30 C30       -14.9384   -2.7645   56.1247 C.3     1  ZINC001300804061   -0.1400
     31 H31       -11.7814   -1.9110   54.4607 H       1  ZINC001300804061    0.0400
     32 H32       -10.3725   -2.2700   55.4876 H       1  ZINC001300804061    0.0400
     33 H33       -10.8952   -3.4407   54.2529 H       1  ZINC001300804061    0.0900
     34 H34       -11.6458   -3.5027   58.5490 H       1  ZINC001300804061    0.0700
     35 H35       -10.6789   -2.1651   57.8830 H       1  ZINC001300804061    0.0800
     36 H36       -11.0240    1.2895   63.7019 H       1  ZINC001300804061    0.1600
     37 H37        -9.0507    2.4073   65.1571 H       1  ZINC001300804061    0.1600
     38 H38        -6.2399    0.6888   65.4896 H       1  ZINC001300804061    0.0900
     39 H39        -5.6723    1.1239   63.8596 H       1  ZINC001300804061    0.0800
     40 H40        -6.3813    2.3682   64.9167 H       1  ZINC001300804061    0.0900
     41 H41       -12.3346    1.0041   60.1362 H       1  ZINC001300804061    0.1100
     42 H42       -11.3694    1.6010   61.5076 H       1  ZINC001300804061    0.1000
     43 H43        -9.6208   -0.1949   58.7336 H       1  ZINC001300804061    0.0700
     44 H44       -11.1417    0.4079   58.0403 H       1  ZINC001300804061    0.0800
     45 H45        -9.4294    0.7915   56.3995 H       1  ZINC001300804061    0.0800
     46 H46        -9.8167    2.3723   57.1156 H       1  ZINC001300804061    0.0800
     47 H47        -7.4917    0.5882   57.9704 H       1  ZINC001300804061    0.0800
     48 H48        -7.3531    2.0127   56.9083 H       1  ZINC001300804061    0.1100
     49 H49        -9.1409    2.4455   61.2089 H       1  ZINC001300804061    0.1000
     50 H50        -8.5923    0.8550   60.6209 H       1  ZINC001300804061    0.0900
     51 H51       -13.5025   -3.0284   60.0136 H       1  ZINC001300804061    0.0600
     52 H52       -13.8992   -1.3424   60.4234 H       1  ZINC001300804061    0.0800
     53 H53       -15.5039   -2.2740   58.7691 H       1  ZINC001300804061    0.0800
     54 H54       -14.5716   -0.9236   58.0780 H       1  ZINC001300804061    0.0800
     55 H55       -14.9562   -1.7354   55.7658 H       1  ZINC001300804061    0.0500
     56 H56       -14.5767   -3.4194   55.3320 H       1  ZINC001300804061    0.0600
     57 H57       -15.9450   -3.0660   56.4140 H       1  ZINC001300804061    0.0600
@<TRIPOS>BOND
     1     1     2    1
     2     1    31    1
     3     1    32    1
     4     1    33    1
     5     2     3    1
     6     3     4    1
     7     3    28    1
     8     3     5    1
     9     5     6    1
    10     5    34    1
    11     5    35    1
    12     6     7    1
    13     6    26    1
    14     7    17    1
    15     7     8    2
    16     8     9    1
    17     9    10    2
    18    10    11    1
    19    10    17    1
    20    11    16    1
    21    11    12    2
    22    12    13    1
    23    12    36    1
    24    13    14    2
    25    13    37    1
    26    14    15    1
    27    14    16    1
    28    15    38    1
    29    15    39    1
    30    15    40    1
    31    17    18    1
    32    18    19    1
    33    18    41    1
    34    18    42    1
    35    19    20    1
    36    19    25    1
    37    19    21    1
    38    21    22    1
    39    21    43    1
    40    21    44    1
    41    22    23    1
    42    22    45    1
    43    22    46    1
    44    23    24    1
    45    23    47    1
    46    23    48    1
    47    24    25    1
    48    25    49    1
    49    25    50    1
    50    26    27    1
    51    26    51    1
    52    26    52    1
    53    27    28    1
    54    27    53    1
    55    27    54    1
    56    28    29    1
    57    28    30    1
    58    30    55    1
    59    30    56    1
    60    30    57    1
@<TRIPOS>SUBSTRUCTURE
     1 ZINC001300804061        1 TEMP              0 ****  ****    0 ROOT


##########                                Name:    ZINC000535362552
##########                DOCK_Rotatable_Bonds:                   5
##########                         Heavy_Atoms:                  26
##########                    Molecular_Weight:             416.228
##########                DOCK_Rotatable_Bonds:                   5
##########                       Formal_Charge:         -0.00999981
##########                     HBond_Acceptors:                   6
##########                        HBond_Donors:                   1
##########                         Heavy_Atoms:                  26
##########                          Grid_Score:          -28.877090
##########                     Grid_vdw_energy:          -27.613100
##########                      Grid_es_energy:           -1.263991
##########           Internal_energy_repulsive:            3.625332

@<TRIPOS>MOLECULE
ZINC000535362552
 40 43 1 0 0
SMALL
USER_CHARGES


@<TRIPOS>ATOM
      1 C1         -9.4006    1.5074   55.4307 C.3     1  ZINC000535362552    0.0300
      2 O2         -8.3006    1.8554   54.5493 O.3     1  ZINC000535362552   -0.3400
      3 C3         -7.8169    3.1110   54.6402 C.2     1  ZINC000535362552    0.5500
      4 O4         -8.2779    3.8822   55.4593 O.2     1  ZINC000535362552   -0.4800
      5 C5         -6.7338    3.5466   53.7502 C.2     1  ZINC000535362552   -0.0100
      6 C6         -6.1256    2.7663   52.8184 C.2     1  ZINC000535362552   -0.0900
      7 C7         -5.1198    3.6115   52.1762 C.ar    1  ZINC000535362552   -0.1300
      8 C8         -4.1830    3.4065   51.1608 C.ar    1  ZINC000535362552   -0.0600
      9 C9         -3.3557    4.4452   50.7770 C.ar    1  ZINC000535362552    0.1200
     10 N10        -2.4134    4.2487   49.7589 N.am    1  ZINC000535362552   -0.6700
     11 C11        -1.3563    3.4388   49.9663 C.2     1  ZINC000535362552    0.5200
     12 O12        -1.2206    2.8801   51.0343 O.2     1  ZINC000535362552   -0.5000
     13 C13        -0.3428    3.2274   48.8713 C.3     1  ZINC000535362552   -0.1000
     14 H14        -0.6400    3.7497   47.9619 H       1  ZINC000535362552    0.1300
     15 C15         1.0665    3.6724   49.3288 C.3     1  ZINC000535362552    0.0600
     16 O16         1.9247    2.7013   48.7064 O.3     1  ZINC000535362552   -0.2900
     17 C17         1.2378    1.5377   48.5388 C.ar    1  ZINC000535362552    0.1300
     18 C18         1.7096    0.2456   48.3226 C.ar    1  ZINC000535362552   -0.1300
     19 C19         0.8240   -0.8011   48.1689 C.ar    1  ZINC000535362552   -0.0500
     20 C20        -0.5397   -0.5769   48.2277 C.ar    1  ZINC000535362552   -0.1200
     21 Br21       -1.7482   -2.0151   48.0108 Br      1  ZINC000535362552   -0.0400
     22 C22        -1.0165    0.7046   48.4463 C.ar    1  ZINC000535362552   -0.0100
     23 C23        -0.1343    1.7494   48.6038 C.ar    1  ZINC000535362552   -0.1600
     24 C24        -3.4569    5.6880   51.4003 C.ar    1  ZINC000535362552   -0.0900
     25 C25        -4.3774    5.8984   52.4028 C.ar    1  ZINC000535362552   -0.0900
     26 C26        -5.2194    4.8677   52.8036 C.ar    1  ZINC000535362552    0.0700
     27 O27        -6.1957    4.7840   53.7295 O.3     1  ZINC000535362552   -0.1700
     28 H28       -10.2482    2.1629   55.2304 H       1  ZINC000535362552    0.0700
     29 H29        -9.6929    0.4720   55.2556 H       1  ZINC000535362552    0.1100
     30 H30        -9.0867    1.6258   56.4677 H       1  ZINC000535362552    0.0700
     31 H31        -6.3410    1.7313   52.5975 H       1  ZINC000535362552    0.1800
     32 H32        -4.1055    2.4431   50.6789 H       1  ZINC000535362552    0.1400
     33 H33        -2.5220    4.6954   48.9047 H       1  ZINC000535362552    0.4100
     34 H34         1.2915    4.6753   48.9661 H       1  ZINC000535362552    0.1200
     35 H35         1.1530    3.6249   50.4144 H       1  ZINC000535362552    0.0900
     36 H36         2.7729    0.0621   48.2753 H       1  ZINC000535362552    0.1400
     37 H37         1.1974   -1.8006   48.0016 H       1  ZINC000535362552    0.1400
     38 H38        -2.0804    0.8845   48.4929 H       1  ZINC000535362552    0.1400
     39 H39        -2.8064    6.4939   51.0941 H       1  ZINC000535362552    0.1500
     40 H40        -4.4453    6.8658   52.8781 H       1  ZINC000535362552    0.1500
@<TRIPOS>BOND
     1     1     2    1
     2     1    28    1
     3     1    29    1
     4     1    30    1
     5     2     3    1
     6     3     4    2
     7     3     5    1
     8     5    27    1
     9     5     6    2
    10     6     7    1
    11     6    31    1
    12     7    26   ar
    13     7     8   ar
    14     8     9   ar
    15     8    32    1
    16     9    10    1
    17     9    24   ar
    18    10    11   am
    19    10    33    1
    20    11    12    2
    21    11    13    1
    22    13    14    1
    23    13    23    1
    24    13    15    1
    25    15    16    1
    26    15    34    1
    27    15    35    1
    28    16    17    1
    29    17    23   ar
    30    17    18   ar
    31    18    19   ar
    32    18    36    1
    33    19    20   ar
    34    19    37    1
    35    20    21    1
    36    20    22   ar
    37    22    23   ar
    38    22    38    1
    39    24    25   ar
    40    24    39    1
    41    25    26   ar
    42    25    40    1
    43    26    27    1
@<TRIPOS>SUBSTRUCTURE
     1 ZINC000535362552        1 TEMP              0 ****  ****    0 ROOT


##########                                Name:    ZINC000876376999
##########                DOCK_Rotatable_Bonds:                   7
##########                         Heavy_Atoms:                  24
##########                    Molecular_Weight:             358.502
##########                DOCK_Rotatable_Bonds:                   7
##########                       Formal_Charge:          -0.0299994
##########                     HBond_Acceptors:                   7
##########                        HBond_Donors:                   2
##########                         Heavy_Atoms:                  24
##########                          Grid_Score:          -28.875238
##########                     Grid_vdw_energy:          -26.550453
##########                      Grid_es_energy:           -2.324786
##########           Internal_energy_repulsive:           36.899452

@<TRIPOS>MOLECULE
ZINC000876376999
 54 56 1 0 0
SMALL
USER_CHARGES


@<TRIPOS>ATOM
      1 C1         -1.2196    5.0898   55.3544 C.3     1  ZINC000876376999   -0.1500
      2 C2         -2.4126    5.8620   54.7874 C.3     1  ZINC000876376999   -0.1100
      3 C3         -2.7453    5.3333   53.3909 C.3     1  ZINC000876376999   -0.0700
      4 C4         -3.0498    3.8360   53.4708 C.3     1  ZINC000876376999    0.0900
      5 O5         -4.1458    3.6197   54.3617 O.3     1  ZINC000876376999   -0.5600
      6 C6         -3.9661    6.0748   52.8413 C.3     1  ZINC000876376999   -0.1100
      7 C7         -4.3197    5.5239   51.4579 C.3     1  ZINC000876376999   -0.1400
      8 C8         -3.1433    5.7560   50.5043 C.3     1  ZINC000876376999    0.1100
      9 N9         -1.9325    5.1703   51.0957 N.am    1  ZINC000876376999   -0.6300
     10 C10        -1.1857    4.2897   50.4007 C.2     1  ZINC000876376999    0.7100
     11 O11        -0.1858    3.8121   50.9011 O.2     1  ZINC000876376999   -0.5800
     12 N12        -1.5471    3.9385   49.1506 N.am    1  ZINC000876376999   -0.7500
     13 C13        -0.7353    2.9812   48.3951 C.3     1  ZINC000876376999    0.1400
     14 C14        -1.1111    1.5533   48.8093 C.3     1  ZINC000876376999   -0.1100
     15 C15        -2.5519    1.2735   48.4789 C.3     1  ZINC000876376999   -0.1100
     16 C16        -2.8042    0.4923   47.1841 C.3     1  ZINC000876376999   -0.5200
     17 H17        -3.8695    0.3337   46.9658 H       1  ZINC000876376999    0.1500
     18 C18        -2.0542    1.2219   46.0462 C.3     1  ZINC000876376999   -0.1200
     19 C19        -0.5823    0.8248   46.0123 C.3     1  ZINC000876376999   -0.1200
     20 C20        -0.2528   -0.1962   47.1254 C.3     1  ZINC000876376999   -0.5300
     21 H21         0.5777   -0.8663   46.8633 H       1  ZINC000876376999    0.1500
     22 C22        -0.0222    0.5908   48.4208 C.3     1  ZINC000876376999   -0.1000
     23 S23        -1.8548   -1.0771   47.3457 S.o2    1  ZINC000876376999    2.3700
     24 O24        -1.9603   -1.5811   48.6693 O.2     1  ZINC000876376999   -0.9300
     25 O25        -2.1077   -1.9194   46.2297 O.2     1  ZINC000876376999   -0.9300
     26 C26        -1.5511    5.5632   52.4592 C.3     1  ZINC000876376999    0.1400
     27 H27        -1.4970    4.0452   55.4955 H       1  ZINC000876376999    0.0500
     28 H28        -0.3826    5.1527   54.6591 H       1  ZINC000876376999    0.0600
     29 H29        -0.9296    5.5213   56.3123 H       1  ZINC000876376999    0.0500
     30 H30        -3.2749    5.7296   55.4410 H       1  ZINC000876376999    0.0600
     31 H31        -2.1633    6.9212   54.7251 H       1  ZINC000876376999    0.0700
     32 H32        -3.3086    3.4644   52.4794 H       1  ZINC000876376999    0.0500
     33 H33        -2.1716    3.3059   53.8396 H       1  ZINC000876376999    0.0400
     34 H34        -4.3918    2.6902   54.4645 H       1  ZINC000876376999    0.3800
     35 H35        -4.8108    5.9331   53.5154 H       1  ZINC000876376999    0.0700
     36 H36        -3.7396    7.1381   52.7617 H       1  ZINC000876376999    0.0700
     37 H37        -4.5220    4.4555   51.5326 H       1  ZINC000876376999    0.0700
     38 H38        -5.2030    6.0364   51.0771 H       1  ZINC000876376999    0.0800
     39 H39        -3.3498    5.2786   49.5464 H       1  ZINC000876376999    0.0700
     40 H40        -2.9974    6.8261   50.3578 H       1  ZINC000876376999    0.0700
     41 H41        -2.3447    4.3196   48.7513 H       1  ZINC000876376999    0.3900
     42 H42        -0.9197    3.1106   47.3286 H       1  ZINC000876376999    0.0800
     43 H43         0.3202    3.1545   48.6050 H       1  ZINC000876376999    0.0700
     44 H44        -1.0766    1.5855   49.9350 H       1  ZINC000876376999    0.0900
     45 H45        -3.0093    0.7193   49.3172 H       1  ZINC000876376999    0.0900
     46 H46        -3.0990    2.2307   48.4231 H       1  ZINC000876376999    0.0900
     47 H47        -2.5107    0.9447   45.0910 H       1  ZINC000876376999    0.0800
     48 H48        -2.1453    2.2970   46.1702 H       1  ZINC000876376999    0.0900
     49 H49        -0.3683    0.3667   45.0417 H       1  ZINC000876376999    0.0800
     50 H50         0.0422    1.7067   46.1201 H       1  ZINC000876376999    0.0900
     51 H51         0.9291    1.1436   48.3305 H       1  ZINC000876376999    0.0900
     52 H52         0.1298   -0.1281   49.2451 H       1  ZINC000876376999    0.0900
     53 H53        -1.2754    6.6177   52.4720 H       1  ZINC000876376999    0.0600
     54 H54        -0.7071    4.9586   52.7911 H       1  ZINC000876376999    0.1000
@<TRIPOS>BOND
     1     1     2    1
     2     1    27    1
     3     1    28    1
     4     1    29    1
     5     2     3    1
     6     2    30    1
     7     2    31    1
     8     3    26    1
     9     3     4    1
    10     3     6    1
    11     4     5    1
    12     4    32    1
    13     4    33    1
    14     5    34    1
    15     6     7    1
    16     6    35    1
    17     6    36    1
    18     7     8    1
    19     7    37    1
    20     7    38    1
    21     8     9    1
    22     8    39    1
    23     8    40    1
    24     9    10   am
    25     9    26    1
    26    10    11    2
    27    10    12   am
    28    12    13    1
    29    12    41    1
    30    13    14    1
    31    13    42    1
    32    13    43    1
    33    14    22    1
    34    14    15    1
    35    14    44    1
    36    15    16    1
    37    15    45    1
    38    15    46    1
    39    16    17    1
    40    16    23    1
    41    16    18    1
    42    18    19    1
    43    18    47    1
    44    18    48    1
    45    19    20    1
    46    19    49    1
    47    19    50    1
    48    20    21    1
    49    20    22    1
    50    20    23    1
    51    22    51    1
    52    22    52    1
    53    23    24    2
    54    23    25    2
    55    26    53    1
    56    26    54    1
@<TRIPOS>SUBSTRUCTURE
     1 ZINC000876376999        1 TEMP              0 ****  ****    0 ROOT


##########                                Name:    ZINC000175255939
##########                DOCK_Rotatable_Bonds:                   8
##########                         Heavy_Atoms:                  28
##########                    Molecular_Weight:             394.375
##########                DOCK_Rotatable_Bonds:                   8
##########                       Formal_Charge:          -0.0399999
##########                     HBond_Acceptors:                   9
##########                        HBond_Donors:                   1
##########                         Heavy_Atoms:                  28
##########                          Grid_Score:          -28.871784
##########                     Grid_vdw_energy:          -25.305656
##########                      Grid_es_energy:           -3.566129
##########           Internal_energy_repulsive:            5.468350

@<TRIPOS>MOLECULE
ZINC000175255939
 48 50 1 0 0
SMALL
USER_CHARGES


@<TRIPOS>ATOM
      1 C1         -9.6922    0.1838   52.9348 C.3     1  ZINC000175255939    0.0300
      2 O2         -8.6976    1.0522   53.5391 O.3     1  ZINC000175255939   -0.3600
      3 C3         -8.7764    2.3611   53.2523 C.2     1  ZINC000175255939    0.4600
      4 O4         -9.6722    2.7737   52.5542 O.2     1  ZINC000175255939   -0.5000
      5 C5         -7.7477    3.3160   53.8008 C.3     1  ZINC000175255939   -0.0800
      6 H6         -8.1895    4.3074   53.9017 H       1  ZINC000175255939    0.1100
      7 C7         -7.2764    2.8257   55.1714 C.3     1  ZINC000175255939   -0.1200
      8 C8         -6.2319    3.7952   55.7282 C.3     1  ZINC000175255939   -0.1100
      9 C9         -5.0388    3.8633   54.7730 C.3     1  ZINC000175255939   -0.1200
     10 C10        -5.5101    4.3537   53.4025 C.3     1  ZINC000175255939   -0.1000
     11 H11        -5.9518    5.3450   53.5034 H       1  ZINC000175255939    0.1100
     12 C12        -4.3348    4.4208   52.4615 C.2     1  ZINC000175255939    0.5100
     13 O13        -4.1459    5.4178   51.7973 O.2     1  ZINC000175255939   -0.4800
     14 N14        -3.4937    3.3728   52.3582 N.am    1  ZINC000175255939   -0.6300
     15 C15        -2.4123    3.4340   51.4906 C.2     1  ZINC000175255939    0.2100
     16 C16        -2.3027    2.8188   50.2794 C.2     1  ZINC000175255939   -0.2600
     17 C17        -1.0182    3.2056   49.8164 C.2     1  ZINC000175255939    0.0900
     18 C18        -0.3791    2.8166   48.5350 C.ar    1  ZINC000175255939   -0.0500
     19 C19         0.0929    1.5174   48.3563 C.ar    1  ZINC000175255939   -0.0600
     20 C20         0.6864    1.1587   47.1646 C.ar    1  ZINC000175255939   -0.1300
     21 C21         0.8145    2.0905   46.1431 C.ar    1  ZINC000175255939    0.1200
     22 O22         1.3996    1.7343   44.9700 O.3     1  ZINC000175255939   -0.3200
     23 C23         0.5941    1.8149   43.7925 C.3     1  ZINC000175255939    0.4100
     24 F24         1.2047    1.0952   42.7597 F       1  ZINC000175255939   -0.2000
     25 F25        -0.6695    1.2743   44.0539 F       1  ZINC000175255939   -0.2000
     26 C26         0.3451    3.3854   46.3183 C.ar    1  ZINC000175255939   -0.1900
     27 C27        -0.2548    3.7481   47.5057 C.ar    1  ZINC000175255939   -0.0500
     28 N28        -0.5089    3.9759   50.7480 N.2     1  ZINC000175255939   -0.3600
     29 O29        -1.2706    4.1156   51.6763 O.3     1  ZINC000175255939    0.1200
     30 C30        -6.5545    3.3842   52.8455 C.3     1  ZINC000175255939   -0.0900
     31 H31        -9.5146   -0.8450   53.2479 H       1  ZINC000175255939    0.1000
     32 H32       -10.6873    0.4941   53.2536 H       1  ZINC000175255939    0.0600
     33 H33        -9.6212    0.2506   51.8491 H       1  ZINC000175255939    0.0600
     34 H34        -8.1265    2.7772   55.8519 H       1  ZINC000175255939    0.0800
     35 H35        -6.8346    1.8344   55.0704 H       1  ZINC000175255939    0.0700
     36 H36        -6.6736    4.7865   55.8293 H       1  ZINC000175255939    0.0700
     37 H37        -5.8962    3.4459   56.7047 H       1  ZINC000175255939    0.0800
     38 H38        -4.2946    4.5540   55.1697 H       1  ZINC000175255939    0.0700
     39 H39        -4.5970    2.8720   54.6721 H       1  ZINC000175255939    0.0800
     40 H40        -3.6440    2.5759   52.8904 H       1  ZINC000175255939    0.4300
     41 H41        -3.0249    2.1846   49.7868 H       1  ZINC000175255939    0.1800
     42 H42        -0.0058    0.7924   49.1508 H       1  ZINC000175255939    0.1400
     43 H43         1.0523    0.1521   47.0256 H       1  ZINC000175255939    0.1400
     44 H44         0.4886    2.8582   43.4951 H       1  ZINC000175255939    0.1900
     45 H45         0.4461    4.1081   45.5221 H       1  ZINC000175255939    0.1400
     46 H46        -0.6199    4.7553   47.6412 H       1  ZINC000175255939    0.1400
     47 H47        -6.1128    2.3929   52.7446 H       1  ZINC000175255939    0.0900
     48 H48        -6.8903    3.7334   51.8691 H       1  ZINC000175255939    0.0800
@<TRIPOS>BOND
     1     1     2    1
     2     1    31    1
     3     1    32    1
     4     1    33    1
     5     2     3    1
     6     3     4    2
     7     3     5    1
     8     5     6    1
     9     5    30    1
    10     5     7    1
    11     7     8    1
    12     7    34    1
    13     7    35    1
    14     8     9    1
    15     8    36    1
    16     8    37    1
    17     9    10    1
    18     9    38    1
    19     9    39    1
    20    10    11    1
    21    10    12    1
    22    10    30    1
    23    12    13    2
    24    12    14   am
    25    14    15    1
    26    14    40    1
    27    15    29    1
    28    15    16    2
    29    16    17    1
    30    16    41    1
    31    17    18    1
    32    17    28    2
    33    18    27   ar
    34    18    19   ar
    35    19    20   ar
    36    19    42    1
    37    20    21   ar
    38    20    43    1
    39    21    22    1
    40    21    26   ar
    41    22    23    1
    42    23    24    1
    43    23    25    1
    44    23    44    1
    45    26    27   ar
    46    26    45    1
    47    27    46    1
    48    28    29    1
    49    30    47    1
    50    30    48    1
@<TRIPOS>SUBSTRUCTURE
     1 ZINC000175255939        1 TEMP              0 ****  ****    0 ROOT


##########                                Name:    ZINC000506388363
##########                DOCK_Rotatable_Bonds:                   5
##########                         Heavy_Atoms:                  29
##########                    Molecular_Weight:             416.858
##########                DOCK_Rotatable_Bonds:                   5
##########                       Formal_Charge:         7.07805e-07
##########                     HBond_Acceptors:                   8
##########                        HBond_Donors:                   1
##########                         Heavy_Atoms:                  29
##########                          Grid_Score:          -28.805954
##########                     Grid_vdw_energy:          -28.106417
##########                      Grid_es_energy:           -0.699538
##########           Internal_energy_repulsive:           11.252758

@<TRIPOS>MOLECULE
ZINC000506388363
 48 51 1 0 0
SMALL
USER_CHARGES


@<TRIPOS>ATOM
      1 O1         -2.7377    7.0113   52.8795 O.2     1  ZINC000506388363   -0.5300
      2 C2         -3.2404    5.9590   52.5366 C.2     1  ZINC000506388363    0.5600
      3 C3         -4.3043    5.3451   53.3595 C.ar    1  ZINC000506388363   -0.1200
      4 C4         -4.0128    4.8647   54.6369 C.ar    1  ZINC000506388363   -0.0900
      5 C5         -5.0099    4.2932   55.4005 C.ar    1  ZINC000506388363   -0.1100
      6 C6         -6.2966    4.1951   54.9026 C.ar    1  ZINC000506388363   -0.0900
      7 C7         -6.5932    4.6695   53.6358 C.ar    1  ZINC000506388363   -0.0400
      8 Cl8        -8.2112    4.5423   53.0198 Cl      1  ZINC000506388363   -0.0600
      9 C9         -5.6056    5.2487   52.8641 C.ar    1  ZINC000506388363   -0.0600
     10 N10        -2.8316    5.3546   51.4033 N.am    1  ZINC000506388363   -0.6100
     11 C11        -1.7706    5.9451   50.5734 C.3     1  ZINC000506388363    0.1000
     12 C12        -0.7115    4.8716   50.3010 C.3     1  ZINC000506388363    0.0400
     13 N13        -1.3590    3.6835   49.7289 N.3     1  ZINC000506388363   -0.5300
     14 C14        -0.3604    2.6977   49.2943 C.3     1  ZINC000506388363    0.1200
     15 C15        -0.1779    2.7922   47.8013 C.2     1  ZINC000506388363   -0.2100
     16 C16         0.1642    3.9015   47.1103 C.2     1  ZINC000506388363    0.0600
     17 N17         0.2251    3.5750   45.8015 N.pl3   1  ZINC000506388363   -0.4700
     18 N18        -0.0903    2.2161   45.6758 N.2     1  ZINC000506388363   -0.2700
     19 C19        -0.3280    1.7383   46.8789 C.2     1  ZINC000506388363    0.1300
     20 C20        -0.6991    0.3390   47.2050 C.ar    1  ZINC000506388363   -0.0700
     21 C21         0.2001   -0.4844   47.8830 C.ar    1  ZINC000506388363    0.1500
     22 F22         1.4120   -0.0098   48.2453 F       1  ZINC000506388363   -0.1200
     23 C23        -0.1519   -1.7872   48.1836 C.ar    1  ZINC000506388363   -0.1600
     24 C24        -1.3921   -2.2746   47.8139 C.ar    1  ZINC000506388363   -0.0500
     25 C25        -2.2881   -1.4636   47.1416 C.ar    1  ZINC000506388363   -0.1600
     26 C26        -1.9508   -0.1571   46.8400 C.ar    1  ZINC000506388363    0.1600
     27 F27        -2.8271    0.6340   46.1831 F       1  ZINC000506388363   -0.1200
     28 C28        -2.3103    3.0869   50.6760 C.3     1  ZINC000506388363    0.0400
     29 C29        -3.4306    4.0842   50.9670 C.3     1  ZINC000506388363    0.1200
     30 H30        -3.0084    4.9399   55.0270 H       1  ZINC000506388363    0.1400
     31 H31        -4.7850    3.9213   56.3892 H       1  ZINC000506388363    0.1400
     32 H32        -7.0731    3.7461   55.5042 H       1  ZINC000506388363    0.1400
     33 H33        -5.8377    5.6188   51.8765 H       1  ZINC000506388363    0.1400
     34 H34        -2.1932    6.2902   49.6298 H       1  ZINC000506388363    0.0800
     35 H35        -1.3155    6.7825   51.1021 H       1  ZINC000506388363    0.1000
     36 H36         0.0258    5.2583   49.5975 H       1  ZINC000506388363    0.0900
     37 H37        -0.2178    4.6025   51.2347 H       1  ZINC000506388363    0.0400
     38 H38         0.5891    2.8996   49.7898 H       1  ZINC000506388363    0.1000
     39 H39        -0.7010    1.6959   49.5559 H       1  ZINC000506388363    0.0400
     40 H40         0.3552    4.8778   47.5308 H       1  ZINC000506388363    0.1800
     41 H41         0.4480    4.1772   45.0744 H       1  ZINC000506388363    0.4400
     42 H42         0.5435   -2.4259   48.7082 H       1  ZINC000506388363    0.1500
     43 H43        -1.6621   -3.2930   48.0509 H       1  ZINC000506388363    0.1500
     44 H44        -3.2549   -1.8503   46.8554 H       1  ZINC000506388363    0.1500
     45 H45        -2.7324    2.1793   50.2444 H       1  ZINC000506388363    0.0900
     46 H46        -1.7943    2.8428   51.6045 H       1  ZINC000506388363    0.0400
     47 H47        -4.0747    3.6919   51.7539 H       1  ZINC000506388363    0.1000
     48 H48        -4.0145    4.2532   50.0621 H       1  ZINC000506388363    0.0800
@<TRIPOS>BOND
     1     1     2    2
     2     2     3    1
     3     2    10   am
     4     3     9   ar
     5     3     4   ar
     6     4     5   ar
     7     4    30    1
     8     5     6   ar
     9     5    31    1
    10     6     7   ar
    11     6    32    1
    12     7     8    1
    13     7     9   ar
    14     9    33    1
    15    10    29    1
    16    10    11    1
    17    11    12    1
    18    11    34    1
    19    11    35    1
    20    12    13    1
    21    12    36    1
    22    12    37    1
    23    13    14    1
    24    13    28    1
    25    14    15    1
    26    14    38    1
    27    14    39    1
    28    15    19    1
    29    15    16    2
    30    16    17    1
    31    16    40    1
    32    17    18    1
    33    17    41    1
    34    18    19    2
    35    19    20    1
    36    20    26   ar
    37    20    21   ar
    38    21    22    1
    39    21    23   ar
    40    23    24   ar
    41    23    42    1
    42    24    25   ar
    43    24    43    1
    44    25    26   ar
    45    25    44    1
    46    26    27    1
    47    28    29    1
    48    28    45    1
    49    28    46    1
    50    29    47    1
    51    29    48    1
@<TRIPOS>SUBSTRUCTURE
     1 ZINC000506388363        1 TEMP              0 ****  ****    0 ROOT


##########                                Name:    ZINC000845755710
##########                DOCK_Rotatable_Bonds:                   3
##########                         Heavy_Atoms:                  24
##########                    Molecular_Weight:             349.814
##########                DOCK_Rotatable_Bonds:                   3
##########                       Formal_Charge:         -0.00999974
##########                     HBond_Acceptors:                   6
##########                        HBond_Donors:                   0
##########                         Heavy_Atoms:                  24
##########                          Grid_Score:          -28.800709
##########                     Grid_vdw_energy:          -28.502947
##########                      Grid_es_energy:           -0.297761
##########           Internal_energy_repulsive:           20.407261

@<TRIPOS>MOLECULE
ZINC000845755710
 44 47 1 0 0
SMALL
USER_CHARGES


@<TRIPOS>ATOM
      1 C1         -9.1704    1.2518   61.3151 C.3     1  ZINC000845755710   -0.1700
      2 C2         -9.1575    0.1566   62.3834 C.3     1  ZINC000845755710    0.2600
      3 C3        -10.1542   -0.9412   62.0060 C.3     1  ZINC000845755710   -0.0900
      4 C4        -11.5762   -0.3774   62.0548 C.3     1  ZINC000845755710   -0.1300
      5 C5        -12.5735   -1.4880   61.7103 C.3     1  ZINC000845755710    0.1100
      6 N6        -12.2006   -2.0734   60.4153 N.am    1  ZINC000845755710   -0.6000
      7 C7        -13.1003   -2.1581   59.4154 C.2     1  ZINC000845755710    0.5900
      8 O8        -14.2336   -1.7476   59.5805 O.2     1  ZINC000845755710   -0.5200
      9 C9        -12.7121   -2.7467   58.1247 C.2     1  ZINC000845755710   -0.2200
     10 C10       -12.8928   -4.0334   57.7211 C.2     1  ZINC000845755710    0.0600
     11 O11       -12.4107   -4.1936   56.4833 O.3     1  ZINC000845755710   -0.1800
     12 C12       -11.8926   -3.0430   56.0053 C.ar    1  ZINC000845755710    0.0500
     13 C13       -11.2876   -2.7021   54.8021 C.ar    1  ZINC000845755710   -0.0900
     14 C14       -10.8457   -1.4128   54.5937 C.ar    1  ZINC000845755710   -0.0800
     15 C15       -10.9983   -0.4457   55.5768 C.ar    1  ZINC000845755710   -0.0400
     16 Cl16      -10.4344    1.1719   55.2946 Cl      1  ZINC000845755710   -0.0600
     17 C17       -11.5973   -0.7659   56.7779 C.ar    1  ZINC000845755710   -0.0500
     18 C18       -12.0512   -2.0622   56.9954 C.ar    1  ZINC000845755710   -0.0900
     19 C19       -10.8282   -2.5641   60.2309 C.3     1  ZINC000845755710    0.1000
     20 C20        -9.8503   -1.4416   60.5921 C.3     1  ZINC000845755710   -0.1300
     21 O21        -7.8383   -0.4060   62.4823 O.3     1  ZINC000845755710   -0.3700
     22 C22        -7.2105    0.3118   63.5718 C.3     1  ZINC000845755710    0.0100
     23 C23        -8.4006    0.5138   64.5427 C.3     1  ZINC000845755710    0.0200
     24 O24        -9.5166    0.7177   63.6529 O.3     1  ZINC000845755710   -0.3800
     25 H25        -8.4636    2.0350   61.5891 H       1  ZINC000845755710    0.0600
     26 H26        -8.8849    0.8249   60.3536 H       1  ZINC000845755710    0.0800
     27 H27       -10.1719    1.6757   61.2414 H       1  ZINC000845755710    0.0800
     28 H28       -10.0673   -1.7683   62.7105 H       1  ZINC000845755710    0.0900
     29 H29       -11.7836    0.0001   63.0561 H       1  ZINC000845755710    0.0800
     30 H30       -11.6710    0.4337   61.3329 H       1  ZINC000845755710    0.0800
     31 H31       -12.5440   -2.2578   62.4813 H       1  ZINC000845755710    0.0700
     32 H32       -13.5782   -1.0700   61.6466 H       1  ZINC000845755710    0.1000
     33 H33       -13.3560   -4.8098   58.3119 H       1  ZINC000845755710    0.2200
     34 H34       -11.1630   -3.4471   54.0301 H       1  ZINC000845755710    0.1500
     35 H35       -10.3761   -1.1533   53.6565 H       1  ZINC000845755710    0.1500
     36 H36       -11.7161   -0.0132   57.5433 H       1  ZINC000845755710    0.1400
     37 H37       -10.6562   -3.4218   60.8813 H       1  ZINC000845755710    0.0800
     38 H38       -10.6811   -2.8563   59.1911 H       1  ZINC000845755710    0.0900
     39 H39        -9.9614   -0.6205   59.8838 H       1  ZINC000845755710    0.0700
     40 H40        -8.8295   -1.8214   60.5521 H       1  ZINC000845755710    0.0800
     41 H41        -6.4270   -0.2886   64.0343 H       1  ZINC000845755710    0.1100
     42 H42        -6.8168    1.2698   63.2324 H       1  ZINC000845755710    0.0800
     43 H43        -8.5534   -0.3751   65.1549 H       1  ZINC000845755710    0.0800
     44 H44        -8.2419    1.3915   65.1691 H       1  ZINC000845755710    0.1000
@<TRIPOS>BOND
     1     1     2    1
     2     1    25    1
     3     1    26    1
     4     1    27    1
     5     2    24    1
     6     2     3    1
     7     2    21    1
     8     3    20    1
     9     3     4    1
    10     3    28    1
    11     4     5    1
    12     4    29    1
    13     4    30    1
    14     5     6    1
    15     5    31    1
    16     5    32    1
    17     6     7   am
    18     6    19    1
    19     7     8    2
    20     7     9    1
    21     9    18    1
    22     9    10    2
    23    10    11    1
    24    10    33    1
    25    11    12    1
    26    12    18   ar
    27    12    13   ar
    28    13    14   ar
    29    13    34    1
    30    14    15   ar
    31    14    35    1
    32    15    16    1
    33    15    17   ar
    34    17    18   ar
    35    17    36    1
    36    19    20    1
    37    19    37    1
    38    19    38    1
    39    20    39    1
    40    20    40    1
    41    21    22    1
    42    22    23    1
    43    22    41    1
    44    22    42    1
    45    23    24    1
    46    23    43    1
    47    23    44    1
@<TRIPOS>SUBSTRUCTURE
     1 ZINC000845755710        1 TEMP              0 ****  ****    0 ROOT


##########                                Name:    ZINC000566738344
##########                DOCK_Rotatable_Bonds:                   5
##########                         Heavy_Atoms:                  23
##########                    Molecular_Weight:             352.478
##########                DOCK_Rotatable_Bonds:                   5
##########                       Formal_Charge:           0.0100005
##########                     HBond_Acceptors:                   7
##########                        HBond_Donors:                   0
##########                         Heavy_Atoms:                  23
##########                          Grid_Score:          -28.793283
##########                     Grid_vdw_energy:          -28.107500
##########                      Grid_es_energy:           -0.685784
##########           Internal_energy_repulsive:           16.678879

@<TRIPOS>MOLECULE
ZINC000566738344
 43 44 1 0 0
SMALL
USER_CHARGES


@<TRIPOS>ATOM
      1 C1         -9.9861    0.7725   55.3732 C.3     1  ZINC000566738344   -0.1300
      2 C2        -10.6478   -0.5810   55.3411 C.ar    1  ZINC000566738344   -0.0100
      3 C3        -11.0467   -1.1806   56.5135 C.ar    1  ZINC000566738344   -0.1000
      4 C4        -11.6578   -2.4318   56.4847 C.ar    1  ZINC000566738344   -0.0500
      5 S5        -12.1666   -3.1964   57.9884 S.3     1  ZINC000566738344   -0.0300
      6 C6        -13.5187   -2.1270   58.5530 C.3     1  ZINC000566738344   -0.1200
      7 H7        -13.2453   -1.0832   58.3983 H       1  ZINC000566738344    0.1200
      8 C8        -14.7866   -2.4453   57.7582 C.3     1  ZINC000566738344   -0.1300
      9 C9        -13.7710   -2.3680   60.0191 C.2     1  ZINC000566738344    0.5200
     10 O10       -14.7589   -2.9764   60.3724 O.2     1  ZINC000566738344   -0.5000
     11 N11       -12.8990   -1.9074   60.9377 N.am    1  ZINC000566738344   -0.6000
     12 C12       -13.1434   -2.1433   62.3627 C.3     1  ZINC000566738344    0.0600
     13 C13       -11.7066   -1.1709   60.5112 C.3     1  ZINC000566738344    0.1500
     14 H14       -11.5874   -1.2604   59.4314 H       1  ZINC000566738344    0.1300
     15 C15       -11.8500    0.3124   60.8946 C.3     1  ZINC000566738344   -0.1300
     16 C16       -10.4482    0.9524   60.7230 C.3     1  ZINC000566738344   -0.5900
     17 S17        -9.3389   -0.3194   61.4381 S.o2    1  ZINC000566738344    2.4000
     18 O18        -8.2034   -0.4793   60.5990 O.2     1  ZINC000566738344   -0.9300
     19 O19        -9.1637   -0.0652   62.8252 O.2     1  ZINC000566738344   -0.9300
     20 C20       -10.4627   -1.7437   61.2191 C.3     1  ZINC000566738344   -0.6200
     21 C21       -11.8679   -3.0795   55.2702 C.ar    1  ZINC000566738344   -0.1400
     22 C22       -11.4712   -2.4851   54.0941 C.ar    1  ZINC000566738344   -0.0400
     23 C23       -10.8622   -1.2267   54.1192 C.ar    1  ZINC000566738344   -0.0400
     24 C24       -10.4484   -0.6054   52.8971 C.1     1  ZINC000566738344    0.2500
     25 N25       -10.1200   -0.1125   51.9276 N.1     1  ZINC000566738344   -0.4100
     26 H26       -10.7466    1.5503   55.3039 H       1  ZINC000566738344    0.0800
     27 H27        -9.4350    0.8855   56.3068 H       1  ZINC000566738344    0.0800
     28 H28        -9.2984    0.8608   54.5322 H       1  ZINC000566738344    0.0700
     29 H29       -10.8854   -0.6806   57.4571 H       1  ZINC000566738344    0.1400
     30 H30       -15.1102   -3.4618   57.9821 H       1  ZINC000566738344    0.0800
     31 H31       -15.5743   -1.7442   58.0344 H       1  ZINC000566738344    0.0800
     32 H32       -14.5789   -2.3566   56.6919 H       1  ZINC000566738344    0.0900
     33 H33       -12.6793   -3.0837   62.6602 H       1  ZINC000566738344    0.0700
     34 H34       -12.7156   -1.3270   62.9447 H       1  ZINC000566738344    0.0800
     35 H35       -14.2170   -2.1948   62.5436 H       1  ZINC000566738344    0.0800
     36 H36       -12.5667    0.8010   60.2346 H       1  ZINC000566738344    0.1100
     37 H37       -12.1761    0.4002   61.9310 H       1  ZINC000566738344    0.0900
     38 H38       -10.2230    1.1137   59.6688 H       1  ZINC000566738344    0.1400
     39 H39       -10.3779    1.8857   61.2819 H       1  ZINC000566738344    0.1400
     40 H40       -10.7359   -2.1626   62.1876 H       1  ZINC000566738344    0.1400
     41 H41        -9.9926   -2.5043   60.5958 H       1  ZINC000566738344    0.1500
     42 H42       -12.3424   -4.0495   55.2512 H       1  ZINC000566738344    0.1200
     43 H43       -11.6342   -2.9882   53.1524 H       1  ZINC000566738344    0.1400
@<TRIPOS>BOND
     1     1     2    1
     2     1    26    1
     3     1    27    1
     4     1    28    1
     5     2    23   ar
     6     2     3   ar
     7     3     4   ar
     8     3    29    1
     9     4     5    1
    10     4    21   ar
    11     5     6    1
    12     6     7    1
    13     6     8    1
    14     6     9    1
    15     8    30    1
    16     8    31    1
    17     8    32    1
    18     9    10    2
    19     9    11   am
    20    11    12    1
    21    11    13    1
    22    12    33    1
    23    12    34    1
    24    12    35    1
    25    13    14    1
    26    13    20    1
    27    13    15    1
    28    15    16    1
    29    15    36    1
    30    15    37    1
    31    16    17    1
    32    16    38    1
    33    16    39    1
    34    17    18    2
    35    17    19    2
    36    17    20    1
    37    20    40    1
    38    20    41    1
    39    21    22   ar
    40    21    42    1
    41    22    23   ar
    42    22    43    1
    43    23    24    1
    44    24    25    3
@<TRIPOS>SUBSTRUCTURE
     1 ZINC000566738344        1 TEMP              0 ****  ****    0 ROOT


##########                                Name:    ZINC000915315870
##########                DOCK_Rotatable_Bonds:                   4
##########                         Heavy_Atoms:                  24
##########                    Molecular_Weight:             357.381
##########                DOCK_Rotatable_Bonds:                   4
##########                       Formal_Charge:           0.0300002
##########                     HBond_Acceptors:                   9
##########                        HBond_Donors:                   1
##########                         Heavy_Atoms:                  24
##########                          Grid_Score:          -28.790709
##########                     Grid_vdw_energy:          -27.577478
##########                      Grid_es_energy:           -1.213231
##########           Internal_energy_repulsive:           36.235882

@<TRIPOS>MOLECULE
ZINC000915315870
 41 43 1 0 0
SMALL
USER_CHARGES


@<TRIPOS>ATOM
      1 C1          3.2299    1.2436   43.3880 C.3     1  ZINC000915315870    0.0300
      2 O2          3.3034    0.8277   44.7532 O.3     1  ZINC000915315870   -0.3200
      3 C3          2.1259    0.6790   45.4176 C.ar    1  ZINC000915315870    0.0800
      4 C4          2.1231    0.2839   46.7485 C.ar    1  ZINC000915315870    0.0900
      5 F5          3.2905    0.0470   47.3860 F       1  ZINC000915315870   -0.1100
      6 C6          0.9235    0.1336   47.4216 C.ar    1  ZINC000915315870   -0.0500
      7 C7         -0.2715    0.3758   46.7700 C.ar    1  ZINC000915315870   -0.6300
      8 S8         -1.7969    0.1827   47.6304 S.o2    1  ZINC000915315870    2.7000
      9 O9         -2.7465   -0.2585   46.6697 O.2     1  ZINC000915315870   -0.9400
     10 O10        -1.4993   -0.5395   48.8175 O.2     1  ZINC000915315870   -0.9400
     11 N11        -2.2834    1.6911   48.1103 N.am    1  ZINC000915315870   -1.1100
     12 C12        -1.4332    2.4866   48.9994 C.3     1  ZINC000915315870    0.2400
     13 H13        -0.7755    1.8275   49.5660 H       1  ZINC000915315870    0.0900
     14 C14        -0.5940    3.4681   48.1715 C.3     1  ZINC000915315870   -0.1400
     15 C15         0.1082    4.4594   49.1020 C.3     1  ZINC000915315870   -0.1100
     16 C16        -0.9183    5.4377   49.6867 C.3     1  ZINC000915315870   -0.0400
     17 C17        -2.0616    4.6354   50.2589 C.2     1  ZINC000915315870    0.0900
     18 N18        -2.9813    5.0242   51.0934 N.2     1  ZINC000915315870   -0.2900
     19 N19        -3.8311    3.9363   51.3446 N.pl3   1  ZINC000915315870   -0.3800
     20 C20        -4.9989    3.9420   52.2291 C.3     1  ZINC000915315870    0.1000
     21 C21        -3.3831    2.8820   50.6264 C.2     1  ZINC000915315870    0.0800
     22 C22        -2.2941    3.2847   49.9473 C.2     1  ZINC000915315870   -0.2500
     23 C23        -0.2721    0.7699   45.4448 C.ar    1  ZINC000915315870   -0.0500
     24 C24         0.9244    0.9276   44.7678 C.ar    1  ZINC000915315870    0.1000
     25 F25         0.9231    1.3126   43.4729 F       1  ZINC000915315870   -0.1100
     26 H26         4.2367    1.3229   42.9778 H       1  ZINC000915315870    0.1100
     27 H27         2.6609    0.5113   42.8153 H       1  ZINC000915315870    0.0600
     28 H28         2.7363    2.2136   43.3297 H       1  ZINC000915315870    0.0500
     29 H29         0.9208   -0.1738   48.4570 H       1  ZINC000915315870    0.1700
     30 H30        -3.1313    2.0480   47.8027 H       1  ZINC000915315870    0.4200
     31 H31         0.1523    2.9153   47.6009 H       1  ZINC000915315870    0.0900
     32 H32        -1.2438    4.0120   47.4859 H       1  ZINC000915315870    0.0800
     33 H33         0.5926    3.9151   49.9126 H       1  ZINC000915315870    0.0700
     34 H34         0.8589    5.0149   48.5400 H       1  ZINC000915315870    0.0800
     35 H35        -0.4540    6.0302   50.4749 H       1  ZINC000915315870    0.0800
     36 H36        -1.2882    6.0959   48.9004 H       1  ZINC000915315870    0.0900
     37 H37        -5.8840    4.2269   51.6604 H       1  ZINC000915315870    0.0800
     38 H38        -5.1416    2.9461   52.6487 H       1  ZINC000915315870    0.0900
     39 H39        -4.8399    4.6570   53.0362 H       1  ZINC000915315870    0.0900
     40 H40        -3.8204    1.8948   50.6024 H       1  ZINC000915315870    0.1700
     41 H41        -1.2072    0.9587   44.9386 H       1  ZINC000915315870    0.1700
@<TRIPOS>BOND
     1     1     2    1
     2     1    26    1
     3     1    27    1
     4     1    28    1
     5     2     3    1
     6     3    24   ar
     7     3     4   ar
     8     4     5    1
     9     4     6   ar
    10     6     7   ar
    11     6    29    1
    12     7     8    1
    13     7    23   ar
    14     8     9    2
    15     8    10    2
    16     8    11   am
    17    11    12    1
    18    11    30    1
    19    12    13    1
    20    12    22    1
    21    12    14    1
    22    14    15    1
    23    14    31    1
    24    14    32    1
    25    15    16    1
    26    15    33    1
    27    15    34    1
    28    16    17    1
    29    16    35    1
    30    16    36    1
    31    17    22    1
    32    17    18    2
    33    18    19    1
    34    19    20    1
    35    19    21    1
    36    20    37    1
    37    20    38    1
    38    20    39    1
    39    21    22    2
    40    21    40    1
    41    23    24   ar
    42    23    41    1
    43    24    25    1
@<TRIPOS>SUBSTRUCTURE
     1 ZINC000915315870        1 TEMP              0 ****  ****    0 ROOT


##########                                Name:    ZINC000441887161
##########                DOCK_Rotatable_Bonds:                   6
##########                         Heavy_Atoms:                  27
##########                    Molecular_Weight:             383.514
##########                DOCK_Rotatable_Bonds:                   6
##########                       Formal_Charge:          -0.0300002
##########                     HBond_Acceptors:                   6
##########                        HBond_Donors:                   1
##########                         Heavy_Atoms:                  27
##########                          Grid_Score:          -28.790548
##########                     Grid_vdw_energy:          -27.785744
##########                      Grid_es_energy:           -1.004804
##########           Internal_energy_repulsive:           18.631865

@<TRIPOS>MOLECULE
ZINC000441887161
 52 54 1 0 0
SMALL
USER_CHARGES


@<TRIPOS>ATOM
      1 C1         -0.5156    3.0451   54.9990 C.3     1  ZINC000441887161   -0.1200
      2 C2         -0.4232    3.4246   53.5435 C.ar    1  ZINC000441887161   -0.0700
      3 C3          0.6948    4.0859   53.0714 C.ar    1  ZINC000441887161   -0.1200
      4 C4          0.7796    4.4340   51.7360 C.ar    1  ZINC000441887161   -0.0900
      5 C5         -0.2533    4.1202   50.8731 C.ar    1  ZINC000441887161   -0.1100
      6 C6         -0.1612    4.5000   49.4177 C.3     1  ZINC000441887161    0.1900
      7 H7         -0.9187    3.9576   48.8519 H       1  ZINC000441887161    0.1000
      8 C8         -0.3927    6.0049   49.2677 C.3     1  ZINC000441887161    0.1000
      9 N9         -1.6885    6.3603   49.8518 N.pl3   1  ZINC000441887161   -0.4600
     10 C10        -2.8788    6.4656   49.1842 C.2     1  ZINC000441887161   -0.0500
     11 C11        -3.8079    6.8100   50.0963 C.2     1  ZINC000441887161   -0.0200
     12 N12        -3.2013    6.9123   51.2881 N.2     1  ZINC000441887161   -0.4900
     13 C13        -1.9326    6.6393   51.1503 C.2     1  ZINC000441887161    0.1800
     14 N14         1.1684    4.1571   48.9069 N.am    1  ZINC000441887161   -1.1100
     15 S15         1.3329    3.5233   47.3859 S.o2    1  ZINC000441887161    2.6900
     16 O16         0.6735    4.4210   46.5036 O.2     1  ZINC000441887161   -0.9600
     17 O17         2.7001    3.1614   47.2477 O.2     1  ZINC000441887161   -0.9500
     18 C18         0.4140    2.0205   47.3449 C.ar    1  ZINC000441887161   -0.6800
     19 C19         0.6958    1.0132   48.2484 C.ar    1  ZINC000441887161   -0.0300
     20 C20        -0.0252   -0.1660   48.2162 C.ar    1  ZINC000441887161   -0.1300
     21 C21        -1.0282   -0.3375   47.2809 C.ar    1  ZINC000441887161   -0.0200
     22 C22        -1.8138   -1.6230   47.2455 C.3     1  ZINC000441887161   -0.1300
     23 C23        -1.3110    0.6706   46.3779 C.ar    1  ZINC000441887161   -0.1000
     24 C24        -2.4049    0.4839   45.3583 C.3     1  ZINC000441887161   -0.1200
     25 C25        -0.5928    1.8509   46.4126 C.ar    1  ZINC000441887161   -0.0100
     26 C26        -1.3712    3.4574   51.3451 C.ar    1  ZINC000441887161   -0.0700
     27 C27        -2.4973    3.1148   50.4042 C.3     1  ZINC000441887161   -0.1300
     28 C28        -1.4542    3.1061   52.6793 C.ar    1  ZINC000441887161   -0.1200
     29 H29        -0.0871    2.0534   55.1440 H       1  ZINC000441887161    0.0700
     30 H30         0.0346    3.7699   55.5990 H       1  ZINC000441887161    0.0700
     31 H31        -1.5612    3.0377   55.3068 H       1  ZINC000441887161    0.0700
     32 H32         1.5021    4.3312   53.7457 H       1  ZINC000441887161    0.1200
     33 H33         1.6530    4.9515   51.3673 H       1  ZINC000441887161    0.1200
     34 H34         0.3994    6.5476   49.7836 H       1  ZINC000441887161    0.1100
     35 H35        -0.3858    6.2700   48.2105 H       1  ZINC000441887161    0.1000
     36 H36        -3.0416    6.3038   48.1288 H       1  ZINC000441887161    0.1700
     37 H37        -4.8573    6.9750   49.9019 H       1  ZINC000441887161    0.1600
     38 H38        -1.1984    6.6426   51.9423 H       1  ZINC000441887161    0.2000
     39 H39         1.9523    4.3014   49.4596 H       1  ZINC000441887161    0.4200
     40 H40         1.4795    1.1472   48.9793 H       1  ZINC000441887161    0.1300
     41 H41         0.1955   -0.9533   48.9218 H       1  ZINC000441887161    0.1300
     42 H42        -2.6848   -1.5345   47.8947 H       1  ZINC000441887161    0.0800
     43 H43        -2.1403   -1.8213   46.2246 H       1  ZINC000441887161    0.0800
     44 H44        -1.1845   -2.4430   47.5915 H       1  ZINC000441887161    0.0700
     45 H45        -3.3501    0.8372   45.7706 H       1  ZINC000441887161    0.0800
     46 H46        -2.1652    1.0526   44.4600 H       1  ZINC000441887161    0.0700
     47 H47        -2.4907   -0.5733   45.1070 H       1  ZINC000441887161    0.0700
     48 H48        -0.8138    2.6384   45.7072 H       1  ZINC000441887161    0.1400
     49 H49        -2.3215    2.1304   49.9703 H       1  ZINC000441887161    0.0800
     50 H50        -3.4394    3.1072   50.9524 H       1  ZINC000441887161    0.0700
     51 H51        -2.5456    3.8589   49.6091 H       1  ZINC000441887161    0.0600
     52 H52        -2.3274    2.5882   53.0479 H       1  ZINC000441887161    0.1300
@<TRIPOS>BOND
     1     1     2    1
     2     1    29    1
     3     1    30    1
     4     1    31    1
     5     2    28   ar
     6     2     3   ar
     7     3     4   ar
     8     3    32    1
     9     4     5   ar
    10     4    33    1
    11     5     6    1
    12     5    26   ar
    13     6     7    1
    14     6     8    1
    15     6    14    1
    16     8     9    1
    17     8    34    1
    18     8    35    1
    19     9    13    1
    20     9    10    1
    21    10    11    2
    22    10    36    1
    23    11    12    1
    24    11    37    1
    25    12    13    2
    26    13    38    1
    27    14    15   am
    28    14    39    1
    29    15    16    2
    30    15    17    2
    31    15    18    1
    32    18    25   ar
    33    18    19   ar
    34    19    20   ar
    35    19    40    1
    36    20    21   ar
    37    20    41    1
    38    21    22    1
    39    21    23   ar
    40    22    42    1
    41    22    43    1
    42    22    44    1
    43    23    24    1
    44    23    25   ar
    45    24    45    1
    46    24    46    1
    47    24    47    1
    48    25    48    1
    49    26    27    1
    50    26    28   ar
    51    27    49    1
    52    27    50    1
    53    27    51    1
    54    28    52    1
@<TRIPOS>SUBSTRUCTURE
     1 ZINC000441887161        1 TEMP              0 ****  ****    0 ROOT


##########                                Name:    ZINC000547864253
##########                DOCK_Rotatable_Bonds:                   6
##########                         Heavy_Atoms:                  30
##########                    Molecular_Weight:             422.548
##########                DOCK_Rotatable_Bonds:                   6
##########                       Formal_Charge:           0.0300002
##########                     HBond_Acceptors:                   6
##########                        HBond_Donors:                   2
##########                         Heavy_Atoms:                  30
##########                          Grid_Score:          -28.785238
##########                     Grid_vdw_energy:          -27.239597
##########                      Grid_es_energy:           -1.545641
##########           Internal_energy_repulsive:           13.849915

@<TRIPOS>MOLECULE
ZINC000547864253
 56 60 1 0 0
SMALL
USER_CHARGES


@<TRIPOS>ATOM
      1 O1         -6.8339    0.7642   58.3907 O.2     1  ZINC000547864253   -0.5300
      2 C2         -7.6362    1.6696   58.4775 C.2     1  ZINC000547864253    0.5400
      3 N3         -8.9546    1.3976   58.5449 N.am    1  ZINC000547864253   -0.7200
      4 C4         -9.4187    0.0086   58.5073 C.3     1  ZINC000547864253    0.1300
      5 C5        -10.9333   -0.0290   58.7210 C.3     1  ZINC000547864253    0.0200
      6 H6        -11.3972    0.7952   58.1791 H       1  ZINC000547864253    0.0900
      7 C7        -11.4804   -1.3370   58.2105 C.2     1  ZINC000547864253   -0.1600
      8 C8        -12.1662   -2.2470   58.9201 C.2     1  ZINC000547864253    0.0600
      9 N9        -12.4992   -3.3070   58.1215 N.pl3   1  ZINC000547864253   -0.5900
     10 C10       -12.0237   -3.0998   56.8460 C.ar    1  ZINC000547864253    0.1000
     11 C11       -12.0796   -3.8416   55.6708 C.ar    1  ZINC000547864253   -0.1300
     12 C12       -11.4915   -3.3530   54.5245 C.ar    1  ZINC000547864253   -0.1000
     13 C13       -10.8426   -2.1263   54.5295 C.ar    1  ZINC000547864253   -0.1400
     14 C14       -10.7757   -1.3809   55.6730 C.ar    1  ZINC000547864253   -0.0700
     15 C15       -11.3701   -1.8538   56.8442 C.ar    1  ZINC000547864253   -0.1000
     16 C16       -11.2365    0.1028   60.1913 C.ar    1  ZINC000547864253   -0.0700
     17 C17       -12.2000    0.9961   60.6209 C.ar    1  ZINC000547864253   -0.1100
     18 C18       -12.4782    1.1170   61.9696 C.ar    1  ZINC000547864253   -0.1200
     19 C19       -11.7931    0.3442   62.8886 C.ar    1  ZINC000547864253   -0.1200
     20 C20       -10.8303   -0.5498   62.4589 C.ar    1  ZINC000547864253   -0.1100
     21 C21       -10.5552   -0.6738   61.1099 C.ar    1  ZINC000547864253   -0.1200
     22 C22        -7.1587    3.0985   58.5162 C.3     1  ZINC000547864253   -0.1700
     23 H23        -6.9038    3.4822   59.5040 H       1  ZINC000547864253    0.1400
     24 C24        -7.7770    4.0771   57.5161 C.3     1  ZINC000547864253   -0.1300
     25 C25        -6.3336    3.6005   57.3282 C.3     1  ZINC000547864253   -0.1400
     26 C26        -5.2176    4.6038   57.6219 C.3     1  ZINC000547864253   -0.0700
     27 C27        -5.0252    5.5286   56.4181 C.3     1  ZINC000547864253   -0.6000
     28 S28        -4.5561    4.5366   54.9717 S.o2    1  ZINC000547864253    2.4200
     29 O29        -4.5802    5.3709   53.8217 O.2     1  ZINC000547864253   -0.9400
     30 O30        -3.3722    3.8142   55.2813 O.2     1  ZINC000547864253   -0.9300
     31 C31        -5.9408    3.3667   54.8686 C.3     1  ZINC000547864253   -0.6000
     32 C32        -6.0614    2.6114   56.1940 C.3     1  ZINC000547864253   -0.0700
     33 H33        -9.5960    2.1215   58.6183 H       1  ZINC000547864253    0.4000
     34 H34        -9.1775   -0.4290   57.5387 H       1  ZINC000547864253    0.0800
     35 H35        -8.9263   -0.5605   59.2959 H       1  ZINC000547864253    0.0700
     36 H36       -12.4176   -2.1561   59.9665 H       1  ZINC000547864253    0.1700
     37 H37       -12.9962   -4.0882   58.4109 H       1  ZINC000547864253    0.4200
     38 H38       -12.5820   -4.7976   55.6569 H       1  ZINC000547864253    0.1200
     39 H39       -11.5357   -3.9307   53.6131 H       1  ZINC000547864253    0.1300
     40 H40       -10.3865   -1.7578   53.6225 H       1  ZINC000547864253    0.1200
     41 H41       -10.2690   -0.4271   55.6694 H       1  ZINC000547864253    0.1200
     42 H42       -12.7351    1.5999   59.9029 H       1  ZINC000547864253    0.1200
     43 H43       -13.2303    1.8155   62.3054 H       1  ZINC000547864253    0.1200
     44 H44       -12.0100    0.4391   63.9424 H       1  ZINC000547864253    0.1200
     45 H45       -10.2950   -1.1534   63.1769 H       1  ZINC000547864253    0.1200
     46 H46        -9.8030   -1.3723   60.7742 H       1  ZINC000547864253    0.1200
     47 H47        -8.5291    3.6876   56.8300 H       1  ZINC000547864253    0.1100
     48 H48        -7.9286    5.1049   57.8458 H       1  ZINC000547864253    0.1100
     49 H49        -5.4844    5.1974   58.4963 H       1  ZINC000547864253    0.0900
     50 H50        -4.2896    4.0668   57.8186 H       1  ZINC000547864253    0.0900
     51 H51        -5.9565    6.0559   56.2115 H       1  ZINC000547864253    0.1400
     52 H52        -4.2378    6.2504   56.6355 H       1  ZINC000547864253    0.1400
     53 H53        -6.8645    3.9120   54.6749 H       1  ZINC000547864253    0.1400
     54 H54        -5.7592    2.6579   54.0607 H       1  ZINC000547864253    0.1400
     55 H55        -5.1318    2.0781   56.3932 H       1  ZINC000547864253    0.0900
     56 H56        -6.8822    1.8971   56.1308 H       1  ZINC000547864253    0.0900
@<TRIPOS>BOND
     1     1     2    2
     2     2     3   am
     3     2    22    1
     4     3     4    1
     5     3    33    1
     6     4     5    1
     7     4    34    1
     8     4    35    1
     9     5     6    1
    10     5     7    1
    11     5    16    1
    12     7    15    1
    13     7     8    2
    14     8     9    1
    15     8    36    1
    16     9    10    1
    17     9    37    1
    18    10    15   ar
    19    10    11   ar
    20    11    12   ar
    21    11    38    1
    22    12    13   ar
    23    12    39    1
    24    13    14   ar
    25    13    40    1
    26    14    15   ar
    27    14    41    1
    28    16    21   ar
    29    16    17   ar
    30    17    18   ar
    31    17    42    1
    32    18    19   ar
    33    18    43    1
    34    19    20   ar
    35    19    44    1
    36    20    21   ar
    37    20    45    1
    38    21    46    1
    39    22    23    1
    40    22    25    1
    41    22    24    1
    42    24    25    1
    43    24    47    1
    44    24    48    1
    45    25    32    1
    46    25    26    1
    47    26    27    1
    48    26    49    1
    49    26    50    1
    50    27    28    1
    51    27    51    1
    52    27    52    1
    53    28    29    2
    54    28    30    2
    55    28    31    1
    56    31    32    1
    57    31    53    1
    58    31    54    1
    59    32    55    1
    60    32    56    1
@<TRIPOS>SUBSTRUCTURE
     1 ZINC000547864253        1 TEMP              0 ****  ****    0 ROOT


##########                                Name:    ZINC001016082614
##########                DOCK_Rotatable_Bonds:                   6
##########                         Heavy_Atoms:                  25
##########                    Molecular_Weight:             348.402
##########                DOCK_Rotatable_Bonds:                   6
##########                       Formal_Charge:         -0.00999998
##########                     HBond_Acceptors:                   8
##########                        HBond_Donors:                   1
##########                         Heavy_Atoms:                  25
##########                          Grid_Score:          -28.783768
##########                     Grid_vdw_energy:          -28.719397
##########                      Grid_es_energy:           -0.064372
##########           Internal_energy_repulsive:          122.453583

@<TRIPOS>MOLECULE
ZINC001016082614
 49 51 1 0 0
SMALL
USER_CHARGES


@<TRIPOS>ATOM
      1 C1         -1.1645   -1.5967   47.8688 C.3     1  ZINC001016082614   -0.1700
      2 C2         -1.3490   -0.3166   47.0514 C.3     1  ZINC001016082614    0.1000
      3 N3         -1.4245    0.8335   47.9557 N.am    1  ZINC001016082614   -0.6100
      4 C4         -2.4762    0.9685   48.7879 C.2     1  ZINC001016082614    0.6100
      5 O5         -3.3628    0.1352   48.7881 O.2     1  ZINC001016082614   -0.5100
      6 C6         -2.5518    2.1204   49.6936 C.2     1  ZINC001016082614   -0.1100
      7 C7         -3.5432    2.3862   50.5909 C.2     1  ZINC001016082614    0.0600
      8 N8         -3.2266    3.5271   51.2120 N.2     1  ZINC001016082614   -0.4900
      9 C9         -2.0926    3.9687   50.7377 C.2     1  ZINC001016082614    0.2000
     10 O10        -1.6479    3.1217   49.8042 O.3     1  ZINC001016082614   -0.1900
     11 C11        -0.3571    1.8370   47.9555 C.3     1  ZINC001016082614    0.1600
     12 H12        -0.4985    2.4909   48.8159 H       1  ZINC001016082614    0.0800
     13 C13         0.9813    1.1204   48.1063 C.3     1  ZINC001016082614   -0.1300
     14 C14         1.9810    2.0561   48.7399 C.3     1  ZINC001016082614   -0.1300
     15 C15         2.7606    2.8142   47.6502 C.3     1  ZINC001016082614    0.1000
     16 N16         1.8906    3.2345   46.5343 N.am    1  ZINC001016082614   -0.6000
     17 C17         2.3457    3.0974   45.2732 C.2     1  ZINC001016082614    0.5000
     18 O18         3.4496    2.6364   45.0736 O.2     1  ZINC001016082614   -0.5200
     19 C19         1.4829    3.5168   44.1109 C.3     1  ZINC001016082614    0.1100
     20 H20         0.4300    3.3690   44.3510 H       1  ZINC001016082614    0.1100
     21 C21         1.8611    2.7131   42.8470 C.3     1  ZINC001016082614   -0.1200
     22 C22         2.8846    3.6537   42.1699 C.3     1  ZINC001016082614   -0.1600
     23 C23         2.5250    5.0285   42.6887 C.2     1  ZINC001016082614    0.5300
     24 O24         2.8945    6.0745   42.1986 O.2     1  ZINC001016082614   -0.5300
     25 N25         1.7343    4.9227   43.7731 N.am    1  ZINC001016082614   -0.7100
     26 C26         0.5703    3.7869   46.7384 C.3     1  ZINC001016082614    0.1300
     27 C27        -0.4748    2.6438   46.7312 C.3     1  ZINC001016082614   -0.1600
     28 H28        -1.1082   -2.4525   47.1960 H       1  ZINC001016082614    0.0700
     29 H29        -0.2434   -1.5286   48.4477 H       1  ZINC001016082614    0.0500
     30 H30        -2.0102   -1.7212   48.5449 H       1  ZINC001016082614    0.0600
     31 H31        -0.5031   -0.1921   46.3752 H       1  ZINC001016082614    0.0900
     32 H32        -2.2699   -0.3847   46.4725 H       1  ZINC001016082614    0.0900
     33 H33        -4.4232    1.7855   50.7674 H       1  ZINC001016082614    0.2000
     34 H34        -1.5916    4.8721   51.0529 H       1  ZINC001016082614    0.2600
     35 H35         0.8543    0.2416   48.7386 H       1  ZINC001016082614    0.0700
     36 H36         1.3421    0.8134   47.1246 H       1  ZINC001016082614    0.0800
     37 H37         1.4557    2.7718   49.3724 H       1  ZINC001016082614    0.0700
     38 H38         2.6782    1.4814   49.3496 H       1  ZINC001016082614    0.0800
     39 H39         3.2198    3.6979   48.0933 H       1  ZINC001016082614    0.0700
     40 H40         3.5463    2.1661   47.2616 H       1  ZINC001016082614    0.0800
     41 H41         2.3218    1.7618   43.1130 H       1  ZINC001016082614    0.1000
     42 H42         0.9914    2.5585   42.2084 H       1  ZINC001016082614    0.1000
     43 H43         3.8999    3.3883   42.4647 H       1  ZINC001016082614    0.1100
     44 H44         2.7788    3.6155   41.0858 H       1  ZINC001016082614    0.1100
     45 H45         1.3778    5.6780   44.2664 H       1  ZINC001016082614    0.4200
     46 H46         0.5377    4.3049   47.6969 H       1  ZINC001016082614    0.0800
     47 H47         0.3438    4.4912   45.9379 H       1  ZINC001016082614    0.0900
     48 H48        -0.3098    2.0097   45.8602 H       1  ZINC001016082614    0.0900
     49 H49        -1.4762    3.0708   46.6790 H       1  ZINC001016082614    0.0700
@<TRIPOS>BOND
     1     1     2    1
     2     1    28    1
     3     1    29    1
     4     1    30    1
     5     2     3    1
     6     2    31    1
     7     2    32    1
     8     3     4   am
     9     3    11    1
    10     4     5    2
    11     4     6    1
    12     6    10    1
    13     6     7    2
    14     7     8    1
    15     7    33    1
    16     8     9    2
    17     9    10    1
    18     9    34    1
    19    11    12    1
    20    11    27    1
    21    11    13    1
    22    13    14    1
    23    13    35    1
    24    13    36    1
    25    14    15    1
    26    14    37    1
    27    14    38    1
    28    15    16    1
    29    15    39    1
    30    15    40    1
    31    16    17   am
    32    16    26    1
    33    17    18    2
    34    17    19    1
    35    19    20    1
    36    19    25    1
    37    19    21    1
    38    21    22    1
    39    21    41    1
    40    21    42    1
    41    22    23    1
    42    22    43    1
    43    22    44    1
    44    23    24    2
    45    23    25   am
    46    25    45    1
    47    26    27    1
    48    26    46    1
    49    26    47    1
    50    27    48    1
    51    27    49    1
@<TRIPOS>SUBSTRUCTURE
     1 ZINC001016082614        1 TEMP              0 ****  ****    0 ROOT


##########                                Name:    ZINC000652498551
##########                DOCK_Rotatable_Bonds:                   6
##########                         Heavy_Atoms:                  23
##########                    Molecular_Weight:             388.277
##########                DOCK_Rotatable_Bonds:                   6
##########                       Formal_Charge:          -0.0400001
##########                     HBond_Acceptors:                   5
##########                        HBond_Donors:                   1
##########                         Heavy_Atoms:                  23
##########                          Grid_Score:          -28.759741
##########                     Grid_vdw_energy:          -26.597677
##########                      Grid_es_energy:           -2.162063
##########           Internal_energy_repulsive:           21.048279

@<TRIPOS>MOLECULE
ZINC000652498551
 46 47 1 0 0
SMALL
USER_CHARGES


@<TRIPOS>ATOM
      1 C1         -8.0402    5.0981   52.9301 C.3     1  ZINC000652498551   -0.1300
      2 C2         -7.6893    3.7590   53.5819 C.3     1  ZINC000652498551   -0.1300
      3 C3         -8.3179    3.6896   54.9750 C.3     1  ZINC000652498551   -0.1300
      4 C4         -8.2219    2.6328   52.7338 C.2     1  ZINC000652498551    0.5000
      5 O5         -7.5076    1.6822   52.4642 O.co2   1  ZINC000652498551   -0.7000
      6 O6         -9.3671    2.6722   52.3173 O.co2   1  ZINC000652498551   -0.6700
      7 C7         -6.1693    3.6326   53.7013 C.3     1  ZINC000652498551   -0.0600
      8 H8         -5.9135    2.6317   54.0489 H       1  ZINC000652498551    0.0700
      9 C9         -5.6468    4.6698   54.6995 C.3     1  ZINC000652498551   -0.1500
     10 C10        -4.1184    4.5876   54.7530 C.3     1  ZINC000652498551   -0.1400
     11 C11        -3.5523    4.7991   53.3473 C.3     1  ZINC000652498551   -0.0100
     12 N12        -4.0683    3.7612   52.4467 N.4     1  ZINC000652498551   -0.3800
     13 H13        -3.8329    2.8514   52.8139 H       1  ZINC000652498551    0.4200
     14 C14        -3.4633    3.9229   51.1179 C.3     1  ZINC000652498551    0.0000
     15 C15        -3.1194    2.5472   50.5434 C.3     1  ZINC000652498551    0.0200
     16 O16        -2.5820    2.7010   49.2282 O.3     1  ZINC000652498551   -0.3100
     17 C17        -1.7470    1.7248   48.7848 C.ar    1  ZINC000652498551    0.1600
     18 C18        -2.2131    0.4273   48.6361 C.ar    1  ZINC000652498551   -0.2300
     19 C19        -1.3610   -0.5654   48.1845 C.ar    1  ZINC000652498551    0.1500
     20 F20        -1.8141   -1.8298   48.0393 F       1  ZINC000652498551   -0.1200
     21 C21        -0.0444   -0.2628   47.8813 C.ar    1  ZINC000652498551   -0.1600
     22 C22         0.4215    1.0314   48.0300 C.ar    1  ZINC000652498551   -0.0300
     23 Br23        2.2202    1.4414   47.6149 Br      1  ZINC000652498551   -0.0100
     24 C24        -0.4284    2.0264   48.4752 C.ar    1  ZINC000652498551   -0.1300
     25 C25        -5.5272    3.8784   52.3343 C.3     1  ZINC000652498551   -0.0200
     26 H26        -7.6550    5.9126   53.5435 H       1  ZINC000652498551    0.0400
     27 H27        -7.5924    5.1474   51.9376 H       1  ZINC000652498551    0.0500
     28 H28        -9.1231    5.1881   52.8450 H       1  ZINC000652498551    0.0600
     29 H29        -9.4009    3.7796   54.8899 H       1  ZINC000652498551    0.0700
     30 H30        -8.0681    2.7356   55.4393 H       1  ZINC000652498551    0.0400
     31 H31        -7.9327    4.5042   55.5884 H       1  ZINC000652498551    0.0500
     32 H32        -5.9472    5.6674   54.3794 H       1  ZINC000652498551    0.1300
     33 H33        -6.0577    4.4636   55.6878 H       1  ZINC000652498551    0.0800
     34 H34        -3.7356    5.3602   55.4197 H       1  ZINC000652498551    0.1000
     35 H35        -3.8194    3.6065   55.1221 H       1  ZINC000652498551    0.0700
     36 H36        -3.8517    5.7804   52.9793 H       1  ZINC000652498551    0.1300
     37 H37        -2.4644    4.7415   53.3818 H       1  ZINC000652498551    0.1100
     38 H38        -4.1681    4.4269   50.4566 H       1  ZINC000652498551    0.1400
     39 H39        -2.5546    4.5188   51.2024 H       1  ZINC000652498551    0.1500
     40 H40        -2.3825    2.0604   51.1823 H       1  ZINC000652498551    0.1100
     41 H41        -4.0211    1.9365   50.4982 H       1  ZINC000652498551    0.0900
     42 H42        -3.2401    0.1915   48.8727 H       1  ZINC000652498551    0.1500
     43 H43         0.6198   -1.0379   47.5286 H       1  ZINC000652498551    0.1500
     44 H44        -0.0640    3.0364   48.5907 H       1  ZINC000652498551    0.1500
     45 H45        -5.8965    3.1415   51.6210 H       1  ZINC000652498551    0.1100
     46 H46        -5.7852    4.8791   51.9879 H       1  ZINC000652498551    0.1700
@<TRIPOS>BOND
     1     1     2    1
     2     1    26    1
     3     1    27    1
     4     1    28    1
     5     2     3    1
     6     2     4    1
     7     2     7    1
     8     3    29    1
     9     3    30    1
    10     3    31    1
    11     4     5   ar
    12     4     6   ar
    13     7     8    1
    14     7    25    1
    15     7     9    1
    16     9    10    1
    17     9    32    1
    18     9    33    1
    19    10    11    1
    20    10    34    1
    21    10    35    1
    22    11    12    1
    23    11    36    1
    24    11    37    1
    25    12    13    1
    26    12    14    1
    27    12    25    1
    28    14    15    1
    29    14    38    1
    30    14    39    1
    31    15    16    1
    32    15    40    1
    33    15    41    1
    34    16    17    1
    35    17    24   ar
    36    17    18   ar
    37    18    19   ar
    38    18    42    1
    39    19    20    1
    40    19    21   ar
    41    21    22   ar
    42    21    43    1
    43    22    23    1
    44    22    24   ar
    45    24    44    1
    46    25    45    1
    47    25    46    1
@<TRIPOS>SUBSTRUCTURE
     1 ZINC000652498551        1 TEMP              0 ****  ****    0 ROOT


##########                                Name:    ZINC000089894387
##########                DOCK_Rotatable_Bonds:                   8
##########                         Heavy_Atoms:                  22
##########                    Molecular_Weight:             326.823
##########                DOCK_Rotatable_Bonds:                   8
##########                       Formal_Charge:          -0.0300003
##########                     HBond_Acceptors:                   6
##########                        HBond_Donors:                   2
##########                         Heavy_Atoms:                  22
##########                          Grid_Score:          -28.757725
##########                     Grid_vdw_energy:          -26.725107
##########                      Grid_es_energy:           -2.032618
##########           Internal_energy_repulsive:           13.709039

@<TRIPOS>MOLECULE
ZINC000089894387
 45 46 1 0 0
SMALL
USER_CHARGES


@<TRIPOS>ATOM
      1 C1         -3.1264    3.4313   55.2819 C.3     1  ZINC000089894387   -0.1700
      2 C2         -3.0276    4.2201   53.9745 C.3     1  ZINC000089894387    0.1700
      3 H3         -2.2621    4.9899   54.0717 H       1  ZINC000089894387    0.0900
      4 N4         -2.6710    3.3117   52.8820 N.am    1  ZINC000089894387   -0.7400
      5 C5         -1.7622    3.6894   51.9611 C.2     1  ZINC000089894387    0.7100
      6 O6         -1.2395    4.7845   52.0363 O.2     1  ZINC000089894387   -0.5900
      7 N7         -1.4329    2.8531   50.9568 N.am    1  ZINC000089894387   -0.7500
      8 C8         -0.4438    3.2629   49.9568 C.3     1  ZINC000089894387    0.1400
      9 C9         -1.1222    3.3920   48.5916 C.3     1  ZINC000089894387    0.0500
     10 O10        -0.4065    2.6158   47.6287 O.3     1  ZINC000089894387   -0.3100
     11 C11        -0.9282    1.4041   47.3021 C.ar    1  ZINC000089894387    0.1400
     12 C12        -1.7580    1.2800   46.1974 C.ar    1  ZINC000089894387   -0.2100
     13 C13        -2.2876    0.0474   45.8670 C.ar    1  ZINC000089894387   -0.0700
     14 C14        -1.9912   -1.0624   46.6359 C.ar    1  ZINC000089894387   -0.1500
     15 C15        -1.1638   -0.9418   47.7389 C.ar    1  ZINC000089894387    0.0000
     16 Cl16       -0.7936   -2.3374   48.7025 Cl      1  ZINC000089894387   -0.0600
     17 C17        -0.6268    0.2884   48.0697 C.ar    1  ZINC000089894387   -0.1500
     18 C18        -4.3759    4.8770   53.6721 C.3     1  ZINC000089894387   -0.1000
     19 C19        -4.1824    5.9927   52.6407 C.3     1  ZINC000089894387   -0.1600
     20 C20        -5.5462    6.5911   52.2858 C.3     1  ZINC000089894387    0.0600
     21 O21        -6.4031    5.5601   51.7910 O.3     1  ZINC000089894387   -0.3800
     22 C22        -6.6582    4.5129   52.7293 C.3     1  ZINC000089894387    0.0600
     23 C23        -5.3391    3.8311   53.1020 C.3     1  ZINC000089894387   -0.1500
     24 H24        -3.8921    2.6615   55.1848 H       1  ZINC000089894387    0.0600
     25 H25        -2.1659    2.9633   55.4973 H       1  ZINC000089894387    0.0600
     26 H26        -3.3918    4.1071   56.0948 H       1  ZINC000089894387    0.0700
     27 H27        -3.0889    2.4384   52.8213 H       1  ZINC000089894387    0.3900
     28 H28        -1.8509    1.9798   50.8961 H       1  ZINC000089894387    0.4000
     29 H29        -0.0154    4.2237   50.2420 H       1  ZINC000089894387    0.0800
     30 H30         0.3470    2.5148   49.9002 H       1  ZINC000089894387    0.0900
     31 H31        -2.1482    3.0302   48.6599 H       1  ZINC000089894387    0.0900
     32 H32        -1.1255    4.4380   48.2849 H       1  ZINC000089894387    0.0700
     33 H33        -1.9905    2.1466   45.5963 H       1  ZINC000089894387    0.1300
     34 H34        -2.9340   -0.0491   45.0072 H       1  ZINC000089894387    0.1400
     35 H35        -2.4062   -2.0250   46.3759 H       1  ZINC000089894387    0.1400
     36 H36         0.0191    0.3826   48.9301 H       1  ZINC000089894387    0.1400
     37 H37        -4.7920    5.2943   54.5891 H       1  ZINC000089894387    0.0800
     38 H38        -3.5419    6.7689   53.0595 H       1  ZINC000089894387    0.0700
     39 H39        -3.7199    5.5827   51.7429 H       1  ZINC000089894387    0.0800
     40 H40        -5.9903    7.0368   53.1758 H       1  ZINC000089894387    0.0500
     41 H41        -5.4192    7.3568   51.5204 H       1  ZINC000089894387    0.0900
     42 H42        -7.1168    4.9315   53.6252 H       1  ZINC000089894387    0.0500
     43 H43        -7.3321    3.7816   52.2835 H       1  ZINC000089894387    0.1000
     44 H44        -4.8998    3.3774   52.2136 H       1  ZINC000089894387    0.0800
     45 H45        -5.5258    3.0613   53.8508 H       1  ZINC000089894387    0.0800
@<TRIPOS>BOND
     1     1     2    1
     2     1    24    1
     3     1    25    1
     4     1    26    1
     5     2     3    1
     6     2     4    1
     7     2    18    1
     8     4     5   am
     9     4    27    1
    10     5     6    2
    11     5     7   am
    12     7     8    1
    13     7    28    1
    14     8     9    1
    15     8    29    1
    16     8    30    1
    17     9    10    1
    18     9    31    1
    19     9    32    1
    20    10    11    1
    21    11    17   ar
    22    11    12   ar
    23    12    13   ar
    24    12    33    1
    25    13    14   ar
    26    13    34    1
    27    14    15   ar
    28    14    35    1
    29    15    16    1
    30    15    17   ar
    31    17    36    1
    32    18    23    1
    33    18    19    1
    34    18    37    1
    35    19    20    1
    36    19    38    1
    37    19    39    1
    38    20    21    1
    39    20    40    1
    40    20    41    1
    41    21    22    1
    42    22    23    1
    43    22    42    1
    44    22    43    1
    45    23    44    1
    46    23    45    1
@<TRIPOS>SUBSTRUCTURE
     1 ZINC000089894387        1 TEMP              0 ****  ****    0 ROOT


##########                                Name:    ZINC001011676549
##########                DOCK_Rotatable_Bonds:                   6
##########                         Heavy_Atoms:                  24
##########                    Molecular_Weight:             330.387
##########                DOCK_Rotatable_Bonds:                   6
##########                       Formal_Charge:        -1.49012e-07
##########                     HBond_Acceptors:                   7
##########                        HBond_Donors:                   1
##########                         Heavy_Atoms:                  24
##########                          Grid_Score:          -28.737358
##########                     Grid_vdw_energy:          -28.327759
##########                      Grid_es_energy:           -0.409600
##########           Internal_energy_repulsive:           18.323709

@<TRIPOS>MOLECULE
ZINC001011676549
 46 48 1 0 0
SMALL
USER_CHARGES


@<TRIPOS>ATOM
      1 C1         -2.0841    2.0730   48.8984 C.3     1  ZINC001011676549   -0.1700
      2 C2         -1.0913    2.8487   48.0304 C.3     1  ZINC001011676549    0.1300
      3 H3         -1.4383    2.8679   46.9973 H       1  ZINC001011676549    0.0900
      4 C4         -0.9446    4.2902   48.5615 C.3     1  ZINC001011676549    0.1400
      5 H5         -0.8086    4.9924   47.7390 H       1  ZINC001011676549    0.1100
      6 N6         -2.1054    4.6642   49.3733 N.am    1  ZINC001011676549   -0.7200
      7 C7         -2.5259    5.9445   49.3982 C.2     1  ZINC001011676549    0.5200
      8 O8         -1.9425    6.7871   48.7498 O.2     1  ZINC001011676549   -0.5300
      9 C9         -3.7211    6.3288   50.2318 C.3     1  ZINC001011676549   -0.0900
     10 C10        -3.7924    5.4406   51.4472 C.ar    1  ZINC001011676549   -0.1800
     11 C11        -2.7907    5.4665   52.4047 C.ar    1  ZINC001011676549    0.1600
     12 N12        -2.8873    4.6722   53.4588 N.ar    1  ZINC001011676549   -0.5200
     13 C13        -3.9186    3.8646   53.6034 C.ar    1  ZINC001011676549    0.3000
     14 N14        -4.8894    3.8131   52.7136 N.ar    1  ZINC001011676549   -0.5200
     15 C15        -4.8638    4.5823   51.6371 C.ar    1  ZINC001011676549    0.1600
     16 C16         0.3368    4.2108   49.4329 C.3     1  ZINC001011676549   -0.1400
     17 C17         1.1979    3.2051   48.6287 C.3     1  ZINC001011676549    0.1000
     18 N18         0.2344    2.2171   48.1010 N.am    1  ZINC001011676549   -0.6100
     19 C19         0.5238    0.9491   47.7475 C.2     1  ZINC001011676549    0.5800
     20 O20         1.6617    0.5330   47.8529 O.2     1  ZINC001011676549   -0.5300
     21 C21        -0.5368    0.0683   47.2342 C.2     1  ZINC001011676549   -0.1400
     22 C22        -1.1078    0.3631   46.0803 C.2     1  ZINC001011676549   -0.1500
     23 C23        -2.2042   -0.4732   45.4831 C.3     1  ZINC001011676549    0.0900
     24 O24        -2.2546   -1.7483   46.1261 O.3     1  ZINC001011676549   -0.3800
     25 C25        -2.2899   -1.6561   47.5553 C.3     1  ZINC001011676549    0.0600
     26 C26        -0.9297   -1.1405   48.0385 C.3     1  ZINC001011676549   -0.1100
     27 H27        -1.7247    2.0473   49.9271 H       1  ZINC001011676549    0.0600
     28 H28        -3.0566    2.5642   48.8654 H       1  ZINC001011676549    0.0700
     29 H29        -2.1785    1.0548   48.5209 H       1  ZINC001011676549    0.0800
     30 H30        -2.5712    3.9905   49.8928 H       1  ZINC001011676549    0.4100
     31 H31        -3.6255    7.3680   50.5465 H       1  ZINC001011676549    0.1100
     32 H32        -4.6294    6.2100   49.6412 H       1  ZINC001011676549    0.1100
     33 H33        -1.9427    6.1257   52.2921 H       1  ZINC001011676549    0.1700
     34 H34        -3.9695    3.2278   54.4743 H       1  ZINC001011676549    0.2000
     35 H35        -5.6628    4.5354   50.9119 H       1  ZINC001011676549    0.1700
     36 H36         0.8273    5.1822   49.4957 H       1  ZINC001011676549    0.0900
     37 H37         0.1103    3.8242   50.4264 H       1  ZINC001011676549    0.0800
     38 H38         1.7068    3.7119   47.8088 H       1  ZINC001011676549    0.0800
     39 H39         1.9216    2.7179   49.2822 H       1  ZINC001011676549    0.0800
     40 H40        -0.7738    1.2397   45.5451 H       1  ZINC001011676549    0.1200
     41 H41        -3.1591    0.0357   45.6141 H       1  ZINC001011676549    0.0700
     42 H42        -2.0139   -0.6123   44.4188 H       1  ZINC001011676549    0.1100
     43 H43        -3.0764   -0.9651   47.8586 H       1  ZINC001011676549    0.0600
     44 H44        -2.4793   -2.6414   47.9814 H       1  ZINC001011676549    0.1000
     45 H45        -0.1810   -1.9234   47.9180 H       1  ZINC001011676549    0.0900
     46 H46        -0.9992   -0.8640   49.0906 H       1  ZINC001011676549    0.0900
@<TRIPOS>BOND
     1     1     2    1
     2     1    27    1
     3     1    28    1
     4     1    29    1
     5     2     3    1
     6     2    18    1
     7     2     4    1
     8     4     5    1
     9     4     6    1
    10     4    16    1
    11     6     7   am
    12     6    30    1
    13     7     8    2
    14     7     9    1
    15     9    10    1
    16     9    31    1
    17     9    32    1
    18    10    15   ar
    19    10    11   ar
    20    11    12   ar
    21    11    33    1
    22    12    13   ar
    23    13    14   ar
    24    13    34    1
    25    14    15   ar
    26    15    35    1
    27    16    17    1
    28    16    36    1
    29    16    37    1
    30    17    18    1
    31    17    38    1
    32    17    39    1
    33    18    19   am
    34    19    20    2
    35    19    21    1
    36    21    26    1
    37    21    22    2
    38    22    23    1
    39    22    40    1
    40    23    24    1
    41    23    41    1
    42    23    42    1
    43    24    25    1
    44    25    26    1
    45    25    43    1
    46    25    44    1
    47    26    45    1
    48    26    46    1
@<TRIPOS>SUBSTRUCTURE
     1 ZINC001011676549        1 TEMP              0 ****  ****    0 ROOT


##########                                Name:    ZINC001176298561
##########                DOCK_Rotatable_Bonds:                   6
##########                         Heavy_Atoms:                  23
##########                    Molecular_Weight:             337.781
##########                DOCK_Rotatable_Bonds:                   6
##########                       Formal_Charge:          -0.0100003
##########                     HBond_Acceptors:                   7
##########                        HBond_Donors:                   2
##########                         Heavy_Atoms:                  23
##########                          Grid_Score:          -28.734808
##########                     Grid_vdw_energy:          -26.908712
##########                      Grid_es_energy:           -1.826095
##########           Internal_energy_repulsive:           12.754501

@<TRIPOS>MOLECULE
ZINC001176298561
 40 41 1 0 0
SMALL
USER_CHARGES


@<TRIPOS>ATOM
      1 C1         -4.9489    4.2416   52.1805 C.3     1  ZINC001176298561   -0.1700
      2 C2         -3.7203    5.1442   52.3098 C.3     1  ZINC001176298561    0.1100
      3 N3         -2.8543    4.9604   51.1426 N.am    1  ZINC001176298561   -0.6100
      4 C4         -2.9493    5.8817   50.0076 C.3     1  ZINC001176298561    0.0900
      5 C5         -2.8148    7.3217   50.5069 C.3     1  ZINC001176298561   -0.1800
      6 C6         -1.9702    3.9436   51.1130 C.2     1  ZINC001176298561    0.5600
      7 O7         -1.8913    3.1792   52.0547 O.2     1  ZINC001176298561   -0.5300
      8 C8         -1.0960    3.7580   49.9348 C.ar    1  ZINC001176298561   -0.0600
      9 C9          0.2526    4.1108   50.0016 C.ar    1  ZINC001176298561   -0.1900
     10 C10         1.0679    3.9363   48.8985 C.ar    1  ZINC001176298561    0.1400
     11 F11         2.3733    4.2779   48.9649 F       1  ZINC001176298561   -0.1300
     12 C12         0.5504    3.4121   47.7268 C.ar    1  ZINC001176298561   -0.1800
     13 C13        -0.7919    3.0581   47.6522 C.ar    1  ZINC001176298561    0.2400
     14 N14        -1.3096    2.5290   46.4678 N.pl3   1  ZINC001176298561   -0.6700
     15 C15        -1.5375    1.1521   46.3570 C.2     1  ZINC001176298561    0.0400
     16 C16        -1.2078    0.3111   47.3846 C.2     1  ZINC001176298561   -0.0300
     17 C17        -1.4472   -1.0646   47.2480 C.2     1  ZINC001176298561   -0.1300
     18 Cl18       -1.0365   -2.1492   48.5398 Cl      1  ZINC001176298561   -0.0400
     19 C19        -1.9983   -1.5462   46.1098 C.2     1  ZINC001176298561    0.1400
     20 N20        -2.3266   -0.7109   45.0868 N.am    1  ZINC001176298561   -0.6000
     21 C21        -2.1155    0.6155   45.1855 C.2     1  ZINC001176298561    0.5100
     22 O22        -2.4156    1.3523   44.2597 O.2     1  ZINC001176298561   -0.5200
     23 C23        -1.6156    3.2244   48.7556 C.ar    1  ZINC001176298561   -0.1300
     24 H24        -5.5933    4.3784   53.0489 H       1  ZINC001176298561    0.0700
     25 H25        -5.4980    4.5028   51.2759 H       1  ZINC001176298561    0.0600
     26 H26        -4.6307    3.2006   52.1245 H       1  ZINC001176298561    0.0600
     27 H27        -4.0386    6.1853   52.3657 H       1  ZINC001176298561    0.0800
     28 H28        -3.1712    4.8831   53.2145 H       1  ZINC001176298561    0.0900
     29 H29        -2.1505    5.6673   49.2976 H       1  ZINC001176298561    0.0900
     30 H30        -3.9146    5.7559   49.5172 H       1  ZINC001176298561    0.0800
     31 H31        -2.0510    7.3672   51.2832 H       1  ZINC001176298561    0.0700
     32 H32        -2.5290    7.9687   49.6775 H       1  ZINC001176298561    0.0700
     33 H33        -3.7686    7.6551   50.9157 H       1  ZINC001176298561    0.0600
     34 H34         0.6592    4.5204   50.9144 H       1  ZINC001176298561    0.1500
     35 H35         1.1912    3.2780   46.8678 H       1  ZINC001176298561    0.1300
     36 H36        -1.5113    3.1156   45.7220 H       1  ZINC001176298561    0.4200
     37 H37        -0.7683    0.7016   48.2905 H       1  ZINC001176298561    0.1500
     38 H38        -2.1795   -2.6064   46.0119 H       1  ZINC001176298561    0.1800
     39 H39        -2.7205   -1.0748   44.2785 H       1  ZINC001176298561    0.4300
     40 H40        -2.6586    2.9498   48.6990 H       1  ZINC001176298561    0.1400
@<TRIPOS>BOND
     1     1     2    1
     2     1    24    1
     3     1    25    1
     4     1    26    1
     5     2     3    1
     6     2    27    1
     7     2    28    1
     8     3     4    1
     9     3     6   am
    10     4     5    1
    11     4    29    1
    12     4    30    1
    13     5    31    1
    14     5    32    1
    15     5    33    1
    16     6     7    2
    17     6     8    1
    18     8    23   ar
    19     8     9   ar
    20     9    10   ar
    21     9    34    1
    22    10    11    1
    23    10    12   ar
    24    12    13   ar
    25    12    35    1
    26    13    14    1
    27    13    23   ar
    28    14    15    1
    29    14    36    1
    30    15    21    1
    31    15    16    2
    32    16    17    1
    33    16    37    1
    34    17    18    1
    35    17    19    2
    36    19    20    1
    37    19    38    1
    38    20    21   am
    39    20    39    1
    40    21    22    2
    41    23    40    1
@<TRIPOS>SUBSTRUCTURE
     1 ZINC001176298561        1 TEMP              0 ****  ****    0 ROOT


##########                                Name:    ZINC000022858610
##########                DOCK_Rotatable_Bonds:                   9
##########                         Heavy_Atoms:                  26
##########                    Molecular_Weight:             369.343
##########                DOCK_Rotatable_Bonds:                   9
##########                       Formal_Charge:          0.00999956
##########                     HBond_Acceptors:                   9
##########                        HBond_Donors:                   2
##########                         Heavy_Atoms:                  26
##########                          Grid_Score:          -28.697197
##########                     Grid_vdw_energy:          -24.574818
##########                      Grid_es_energy:           -4.122380
##########           Internal_energy_repulsive:           22.081736

@<TRIPOS>MOLECULE
ZINC000022858610
 44 45 1 0 0
SMALL
USER_CHARGES


@<TRIPOS>ATOM
      1 C1          4.0989    6.2142   41.8256 C.3     1  <0>         0.0100
      2 N2          3.4664    6.7392   43.0430 N.3     1  <0>        -0.5300
      3 C3          2.5688    7.8589   42.7291 C.3     1  <0>         0.0200
      4 C4          2.7516    5.6780   43.7646 C.3     1  <0>         0.1500
      5 H5          3.4539    4.8934   44.0461 H       1  <0>         0.1200
      6 C6          1.6652    5.0901   42.8619 C.3     1  <0>         0.1300
      7 N7          0.9522    4.0317   43.5815 N.am    1  <0>        -0.6800
      8 C8          1.4358    2.7737   43.5823 C.2     1  <0>         0.5100
      9 O9          2.4625    2.5178   42.9881 O.2     1  <0>        -0.5100
     10 C10         0.7079    1.6944   44.3144 C.2     1  <0>         0.5200
     11 O11         1.1416    0.5609   44.3126 O.2     1  <0>        -0.4900
     12 N12        -0.4306    1.9793   44.9772 N.am    1  <0>        -0.6500
     13 C13        -1.1115    0.9695   45.6622 C.ar    1  <0>         0.1900
     14 C14        -1.6952   -0.0769   44.9595 C.ar    1  <0>        -0.1200
     15 C15        -2.3675   -1.0733   45.6398 C.ar    1  <0>        -0.0700
     16 C16        -2.4598   -1.0300   47.0188 C.ar    1  <0>        -0.1300
     17 C17        -1.8802    0.0107   47.7216 C.ar    1  <0>        -0.0500
     18 C18        -1.2012    1.0069   47.0484 C.ar    1  <0>        -0.2100
     19 C19        -0.5700    2.1404   47.8149 C.3     1  <0>         0.5100
     20 F20        -1.1877    3.3443   47.4600 F       1  <0>        -0.1700
     21 F21        -0.7296    1.9211   49.1873 F       1  <0>        -0.1800
     22 F22         0.7935    2.2080   47.5090 F       1  <0>        -0.1700
     23 C23         2.1173    6.2532   45.0047 C.2     1  <0>        -0.0500
     24 C24         0.8792    6.7724   45.0866 C.2     1  <0>        -0.1900
     25 C25         0.6980    7.1906   46.4249 C.2     1  <0>        -0.2100
     26 C26         1.8363    6.9020   47.0809 C.2     1  <0>        -0.0400
     27 O27         2.6904    6.3291   46.2171 O.3     1  <0>        -0.1700
     28 H28         4.7715    6.9658   41.4123 H       1  <0>         0.0700
     29 H29         4.6647    5.3148   42.0689 H       1  <0>         0.0700
     30 H30         3.3298    5.9722   41.0920 H       1  <0>         0.0500
     31 H31         1.7882    7.5191   42.0484 H       1  <0>         0.0300
     32 H32         2.1140    8.2287   43.6481 H       1  <0>         0.0700
     33 H33         3.1384    8.6599   42.2577 H       1  <0>         0.0800
     34 H34         0.9628    5.8747   42.5803 H       1  <0>         0.0900
     35 H35         2.1239    4.6741   41.9649 H       1  <0>         0.0800
     36 H36         0.1322    4.2364   44.0574 H       1  <0>         0.4200
     37 H37        -0.7772    2.8852   44.9788 H       1  <0>         0.4300
     38 H38        -1.6237   -0.1112   43.8824 H       1  <0>         0.1500
     39 H39        -2.8218   -1.8870   45.0940 H       1  <0>         0.1400
     40 H40        -2.9861   -1.8105   47.5482 H       1  <0>         0.1400
     41 H41        -1.9549    0.0418   48.7985 H       1  <0>         0.1500
     42 H42         0.1614    6.8545   44.2838 H       1  <0>         0.1500
     43 H43        -0.1848    7.6534   46.8407 H       1  <0>         0.1500
     44 H44         2.0293    7.0946   48.1259 H       1  <0>         0.2000
@<TRIPOS>BOND
     1     1     2    1
     2     1    28    1
     3     1    29    1
     4     1    30    1
     5     2     3    1
     6     2     4    1
     7     3    31    1
     8     3    32    1
     9     3    33    1
    10     4     5    1
    11     4     6    1
    12     4    23    1
    13     6     7    1
    14     6    34    1
    15     6    35    1
    16     7     8   am
    17     7    36    1
    18     8     9    2
    19     8    10    1
    20    10    11    2
    21    10    12   am
    22    12    13    1
    23    12    37    1
    24    13    18   ar
    25    13    14   ar
    26    14    15   ar
    27    14    38    1
    28    15    16   ar
    29    15    39    1
    30    16    17   ar
    31    16    40    1
    32    17    18   ar
    33    17    41    1
    34    18    19    1
    35    19    20    1
    36    19    21    1
    37    19    22    1
    38    23    27    1
    39    23    24    2
    40    24    25    1
    41    24    42    1
    42    25    26    2
    43    25    43    1
    44    26    27    1
    45    26    44    1
@<TRIPOS>SUBSTRUCTURE
     1 <0>         1 TEMP              0 ****  ****    0 ROOT


##########                                Name:    ZINC000474368324
##########                DOCK_Rotatable_Bonds:                   9
##########                         Heavy_Atoms:                  27
##########                    Molecular_Weight:             417.332
##########                DOCK_Rotatable_Bonds:                   9
##########                       Formal_Charge:        -1.63913e-07
##########                     HBond_Acceptors:                   8
##########                        HBond_Donors:                   1
##########                         Heavy_Atoms:                  27
##########                          Grid_Score:          -28.685230
##########                     Grid_vdw_energy:          -27.450354
##########                      Grid_es_energy:           -1.234877
##########           Internal_energy_repulsive:           26.431465

@<TRIPOS>MOLECULE
ZINC000474368324
 53 54 1 0 0
SMALL
USER_CHARGES


@<TRIPOS>ATOM
      1 C1         -6.5402    4.8907   52.4663 C.3     1  ZINC000474368324   -0.1500
      2 C2         -7.9754    5.0265   52.9788 C.3     1  ZINC000474368324    0.0600
      3 O3         -8.1047    4.3301   54.2464 O.3     1  ZINC000474368324   -0.3300
      4 C4         -7.4234    4.8307   55.2889 C.2     1  ZINC000474368324    0.4700
      5 O5         -7.1443    6.0059   55.3201 O.2     1  ZINC000474368324   -0.5100
      6 C6         -7.0064    3.9269   56.4205 C.3     1  ZINC000474368324   -0.0400
      7 C7         -5.4814    3.8052   56.4402 C.3     1  ZINC000474368324    0.0600
      8 O8         -5.0151    3.4468   55.1379 O.3     1  ZINC000474368324   -0.3700
      9 C9         -3.5925    3.4642   55.0046 C.3     1  ZINC000474368324    0.0300
     10 C10        -7.4877    4.5169   57.7481 C.3     1  ZINC000474368324   -0.1200
     11 C11        -7.0323    3.6137   58.8986 C.3     1  ZINC000474368324    0.1100
     12 N12        -7.5024    2.2458   58.6405 N.am    1  ZINC000474368324   -0.6300
     13 C13        -8.2231    1.5814   59.5653 C.2     1  ZINC000474368324    0.7100
     14 O14        -8.4903    2.1135   60.6254 O.2     1  ZINC000474368324   -0.5800
     15 N15        -8.6478    0.3270   59.3151 N.am    1  ZINC000474368324   -0.7400
     16 C16        -9.4312   -0.3954   60.3203 C.3     1  ZINC000474368324    0.2000
     17 H17        -9.7315    0.2928   61.1105 H       1  ZINC000474368324    0.1100
     18 C18        -8.5820   -1.5189   60.9181 C.3     1  ZINC000474368324   -0.1600
     19 C19       -10.6587   -0.9834   59.6732 C.ar    1  ZINC000474368324   -0.0700
     20 C20       -10.6579   -1.2676   58.3208 C.ar    1  ZINC000474368324   -0.1000
     21 C21       -11.7834   -1.8077   57.7264 C.ar    1  ZINC000474368324   -0.0900
     22 C22       -12.9105   -2.0638   58.4840 C.ar    1  ZINC000474368324   -0.1000
     23 C23       -12.9131   -1.7800   59.8381 C.ar    1  ZINC000474368324   -0.0300
     24 Cl24      -14.3285   -2.1016   60.7902 Cl      1  ZINC000474368324   -0.0400
     25 C25       -11.7842   -1.2442   60.4342 C.ar    1  ZINC000474368324   -0.0300
     26 Cl26      -11.7855   -0.8879   62.1333 Cl      1  ZINC000474368324   -0.0400
     27 C27        -7.1721    1.6162   57.3546 C.3     1  ZINC000474368324    0.1300
     28 C28        -7.6259    2.5418   56.2214 C.3     1  ZINC000474368324   -0.1200
     29 H29        -6.4432    5.4134   51.5148 H       1  ZINC000474368324    0.0800
     30 H30        -5.8527    5.3258   53.1916 H       1  ZINC000474368324    0.0700
     31 H31        -6.3023    3.8360   52.3274 H       1  ZINC000474368324    0.0700
     32 H32        -8.2134    6.0811   53.1177 H       1  ZINC000474368324    0.0700
     33 H33        -8.6629    4.5913   52.2535 H       1  ZINC000474368324    0.0700
     34 H34        -5.0445    4.7601   56.7325 H       1  ZINC000474368324    0.0700
     35 H35        -5.1874    3.0370   57.1555 H       1  ZINC000474368324    0.0600
     36 H36        -3.2201    4.4668   55.2149 H       1  ZINC000474368324    0.0400
     37 H37        -3.1529    2.7581   55.7091 H       1  ZINC000474368324    0.0400
     38 H38        -3.3192    3.1809   53.9882 H       1  ZINC000474368324    0.0900
     39 H39        -7.0647    5.5130   57.8782 H       1  ZINC000474368324    0.1000
     40 H40        -8.5758    4.5808   57.7445 H       1  ZINC000474368324    0.0800
     41 H41        -5.9440    3.6207   58.9599 H       1  ZINC000474368324    0.0800
     42 H42        -7.4555    3.9747   59.8360 H       1  ZINC000474368324    0.0800
     43 H43        -8.4347   -0.0975   58.4693 H       1  ZINC000474368324    0.3900
     44 H44        -8.2817   -2.2072   60.1280 H       1  ZINC000474368324    0.0600
     45 H45        -7.6941   -1.0936   61.3862 H       1  ZINC000474368324    0.0700
     46 H46        -9.1649   -2.0564   61.6661 H       1  ZINC000474368324    0.0700
     47 H47        -9.7777   -1.0675   57.7278 H       1  ZINC000474368324    0.1300
     48 H48       -11.7819   -2.0291   56.6692 H       1  ZINC000474368324    0.1400
     49 H49       -13.7895   -2.4853   58.0190 H       1  ZINC000474368324    0.1500
     50 H50        -6.0952    1.4602   57.2901 H       1  ZINC000474368324    0.0700
     51 H51        -7.6875    0.6592   57.2733 H       1  ZINC000474368324    0.1100
     52 H52        -8.7127    2.6243   56.2323 H       1  ZINC000474368324    0.0900
     53 H53        -7.3013    2.1320   55.2650 H       1  ZINC000474368324    0.0900
@<TRIPOS>BOND
     1     1     2    1
     2     1    29    1
     3     1    30    1
     4     1    31    1
     5     2     3    1
     6     2    32    1
     7     2    33    1
     8     3     4    1
     9     4     5    2
    10     4     6    1
    11     6    28    1
    12     6     7    1
    13     6    10    1
    14     7     8    1
    15     7    34    1
    16     7    35    1
    17     8     9    1
    18     9    36    1
    19     9    37    1
    20     9    38    1
    21    10    11    1
    22    10    39    1
    23    10    40    1
    24    11    12    1
    25    11    41    1
    26    11    42    1
    27    12    13   am
    28    12    27    1
    29    13    14    2
    30    13    15   am
    31    15    16    1
    32    15    43    1
    33    16    17    1
    34    16    18    1
    35    16    19    1
    36    18    44    1
    37    18    45    1
    38    18    46    1
    39    19    25   ar
    40    19    20   ar
    41    20    21   ar
    42    20    47    1
    43    21    22   ar
    44    21    48    1
    45    22    23   ar
    46    22    49    1
    47    23    24    1
    48    23    25   ar
    49    25    26    1
    50    27    28    1
    51    27    50    1
    52    27    51    1
    53    28    52    1
    54    28    53    1
@<TRIPOS>SUBSTRUCTURE
     1 ZINC000474368324        1 TEMP              0 ****  ****    0 ROOT


##########                                Name:    ZINC000854500114
##########                DOCK_Rotatable_Bonds:                   7
##########                         Heavy_Atoms:                  24
##########                    Molecular_Weight:             399.288
##########                DOCK_Rotatable_Bonds:                   7
##########                       Formal_Charge:          -0.0399992
##########                     HBond_Acceptors:                   7
##########                        HBond_Donors:                   2
##########                         Heavy_Atoms:                  24
##########                          Grid_Score:          -28.678112
##########                     Grid_vdw_energy:          -27.817234
##########                      Grid_es_energy:           -0.860878
##########           Internal_energy_repulsive:           74.820213

@<TRIPOS>MOLECULE
ZINC000854500114
 47 49 1 0 0
SMALL
USER_CHARGES


@<TRIPOS>ATOM
      1 O1          0.8980    2.8076   48.9615 O.2     1  ZINC000854500114   -0.5800
      2 C2         -0.1116    2.5610   49.5911 C.2     1  ZINC000854500114    0.6600
      3 N3         -0.9033    1.5351   49.2204 N.am    1  ZINC000854500114   -0.7100
      4 C4         -0.5496    0.7210   48.0548 C.3     1  ZINC000854500114    0.1600
      5 C5         -1.4352   -0.5410   48.0035 C.3     1  ZINC000854500114   -0.1400
      6 C6         -2.5898   -0.1561   47.0454 C.3     1  ZINC000854500114   -0.1300
      7 C7         -1.8708    0.6926   45.9675 C.3     1  ZINC000854500114   -0.1300
      8 C8         -0.8266    1.5054   46.7604 C.3     1  ZINC000854500114   -0.1300
      9 O9         -0.4367    3.3091   50.6622 O.3     1  ZINC000854500114   -0.3600
     10 C10        -1.8416    3.3663   51.0244 C.3     1  ZINC000854500114    0.1000
     11 C11        -2.0163    4.2671   52.2488 C.3     1  ZINC000854500114    0.1500
     12 H12        -1.7479    5.2913   51.9903 H       1  ZINC000854500114    0.0900
     13 C13        -1.1152    3.7710   53.3841 C.3     1  ZINC000854500114   -0.1300
     14 C14        -1.3962    4.5881   54.6472 C.3     1  ZINC000854500114   -0.1200
     15 C15        -2.8546    4.3942   55.0684 C.3     1  ZINC000854500114   -0.1400
     16 C16        -3.7755    4.8973   53.9522 C.3     1  ZINC000854500114    0.0900
     17 N17        -3.4147    4.2227   52.6974 N.am    1  ZINC000854500114   -0.6100
     18 C18        -4.3478    3.5715   51.9750 C.2     1  ZINC000854500114    0.5900
     19 O19        -4.0365    3.0170   50.9382 O.2     1  ZINC000854500114   -0.4900
     20 C20        -5.7431    3.5313   52.4407 C.2     1  ZINC000854500114   -0.0300
     21 C21        -6.7320    4.4647   52.1827 C.2     1  ZINC000854500114   -0.1200
     22 C22        -7.8716    3.9862   52.8350 C.2     1  ZINC000854500114    0.0200
     23 Br23       -9.5701    4.8172   52.8631 Br      1  ZINC000854500114    0.0400
     24 N24        -7.5543    2.8604   53.4228 N.2     1  ZINC000854500114   -0.2400
     25 N25        -6.3233    2.5626   53.2093 N.pl3   1  ZINC000854500114   -0.3700
     26 H26        -1.7072    1.3358   49.7252 H       1  ZINC000854500114    0.4000
     27 H27         0.5021    0.4385   48.1024 H       1  ZINC000854500114    0.0900
     28 H28        -0.8733   -1.3853   47.6039 H       1  ZINC000854500114    0.0800
     29 H29        -1.8239   -0.7750   48.9946 H       1  ZINC000854500114    0.0700
     30 H30        -3.0365   -1.0460   46.6018 H       1  ZINC000854500114    0.0700
     31 H31        -3.3420    0.4367   47.5656 H       1  ZINC000854500114    0.0700
     32 H32        -1.3794    0.0476   45.2392 H       1  ZINC000854500114    0.0700
     33 H33        -2.5775    1.3590   45.4728 H       1  ZINC000854500114    0.0700
     34 H34        -1.2242    2.4918   46.9993 H       1  ZINC000854500114    0.0700
     35 H35         0.0905    1.6028   46.1793 H       1  ZINC000854500114    0.0800
     36 H36        -2.4156    3.7709   50.1908 H       1  ZINC000854500114    0.1000
     37 H37        -2.1978    2.3630   51.2578 H       1  ZINC000854500114    0.0700
     38 H38        -1.3211    2.7184   53.5785 H       1  ZINC000854500114    0.0800
     39 H39        -0.0703    3.8910   53.0980 H       1  ZINC000854500114    0.0900
     40 H40        -0.7390    4.2536   55.4498 H       1  ZINC000854500114    0.0800
     41 H41        -1.2139    5.6436   54.4450 H       1  ZINC000854500114    0.0700
     42 H42        -3.0442    3.3358   55.2468 H       1  ZINC000854500114    0.0700
     43 H43        -3.0478    4.9578   55.9811 H       1  ZINC000854500114    0.0800
     44 H44        -4.8118    4.6715   54.2038 H       1  ZINC000854500114    0.0800
     45 H45        -3.6522    5.9738   53.8343 H       1  ZINC000854500114    0.0800
     46 H46        -6.6421    5.3702   51.6011 H       1  ZINC000854500114    0.1700
     47 H47        -5.8725    1.7731   53.5476 H       1  ZINC000854500114    0.4500
@<TRIPOS>BOND
     1     1     2    2
     2     2     3   am
     3     2     9    1
     4     3     4    1
     5     3    26    1
     6     4     8    1
     7     4     5    1
     8     4    27    1
     9     5     6    1
    10     5    28    1
    11     5    29    1
    12     6     7    1
    13     6    30    1
    14     6    31    1
    15     7     8    1
    16     7    32    1
    17     7    33    1
    18     8    34    1
    19     8    35    1
    20     9    10    1
    21    10    11    1
    22    10    36    1
    23    10    37    1
    24    11    12    1
    25    11    17    1
    26    11    13    1
    27    13    14    1
    28    13    38    1
    29    13    39    1
    30    14    15    1
    31    14    40    1
    32    14    41    1
    33    15    16    1
    34    15    42    1
    35    15    43    1
    36    16    17    1
    37    16    44    1
    38    16    45    1
    39    17    18   am
    40    18    19    2
    41    18    20    1
    42    20    25    1
    43    20    21    2
    44    21    22    1
    45    21    46    1
    46    22    23    1
    47    22    24    2
    48    24    25    1
    49    25    47    1
@<TRIPOS>SUBSTRUCTURE
     1 ZINC000854500114        1 TEMP              0 ****  ****    0 ROOT


##########                                Name:    ZINC000435005159
##########                DOCK_Rotatable_Bonds:                  12
##########                         Heavy_Atoms:                  30
##########                    Molecular_Weight:             401.508
##########                DOCK_Rotatable_Bonds:                  12
##########                       Formal_Charge:          -0.0399985
##########                     HBond_Acceptors:                   5
##########                        HBond_Donors:                   2
##########                         Heavy_Atoms:                  30
##########                          Grid_Score:          -28.664862
##########                     Grid_vdw_energy:          -29.923361
##########                      Grid_es_energy:            1.258500
##########           Internal_energy_repulsive:           13.503473

@<TRIPOS>MOLECULE
ZINC000435005159
 57 59 1 0 0
SMALL
USER_CHARGES


@<TRIPOS>ATOM
      1 O1        -11.0010   -2.6557   59.6020 O.2     1  ZINC000435005159   -0.5300
      2 C2        -10.6879   -1.5486   59.2181 C.2     1  ZINC000435005159    0.5200
      3 C3         -9.7570   -0.6998   60.0451 C.3     1  ZINC000435005159   -0.1400
      4 C4         -9.0860   -1.5686   61.1110 C.3     1  ZINC000435005159   -0.1200
      5 C5         -8.1856   -0.6958   61.9876 C.3     1  ZINC000435005159    0.1200
      6 N6         -9.0136    0.1048   62.8930 N.am    1  ZINC000435005159   -0.7200
      7 C7         -8.5733    1.3024   63.3270 C.2     1  ZINC000435005159    0.5600
      8 O8         -7.4886    1.7176   62.9683 O.2     1  ZINC000435005159   -0.5300
      9 C9         -9.4096    2.1112   64.2394 C.ar    1  ZINC000435005159   -0.1900
     10 C10        -8.9667    3.3596   64.6920 C.ar    1  ZINC000435005159   -0.0200
     11 C11        -9.7876    4.0772   65.5444 C.ar    1  ZINC000435005159   -0.1800
     12 C12       -11.0074    3.5432   65.9184 C.ar    1  ZINC000435005159    0.1200
     13 N13       -11.3987    2.3631   65.4762 N.ar    1  ZINC000435005159   -0.4900
     14 C14       -10.6563    1.6453   64.6594 C.ar    1  ZINC000435005159    0.1400
     15 N15       -11.1681   -1.0797   58.0494 N.am    1  ZINC000435005159   -0.7300
     16 C16       -12.0730   -1.9049   57.2455 C.3     1  ZINC000435005159    0.1900
     17 H17       -12.1511   -2.8973   57.6897 H       1  ZINC000435005159    0.1000
     18 C18       -13.4571   -1.2538   57.2058 C.3     1  ZINC000435005159   -0.1200
     19 C19       -14.4584   -2.1385   57.9509 C.3     1  ZINC000435005159   -0.0800
     20 C20       -14.4742   -1.7608   59.4097 C.ar    1  ZINC000435005159   -0.0800
     21 C21       -14.9471   -0.5211   59.7977 C.ar    1  ZINC000435005159   -0.1200
     22 C22       -14.9617   -0.1748   61.1359 C.ar    1  ZINC000435005159   -0.1200
     23 C23       -14.5038   -1.0682   62.0861 C.ar    1  ZINC000435005159   -0.1200
     24 C24       -14.0318   -2.3082   61.6982 C.ar    1  ZINC000435005159   -0.1200
     25 C25       -14.0212   -2.6563   60.3604 C.ar    1  ZINC000435005159   -0.1200
     26 C26       -11.5331   -2.0231   55.8435 C.ar    1  ZINC000435005159   -0.1000
     27 C27       -11.1642   -0.8875   55.1470 C.ar    1  ZINC000435005159   -0.1100
     28 C28       -10.6689   -0.9959   53.8610 C.ar    1  ZINC000435005159   -0.1200
     29 C29       -10.5421   -2.2400   53.2716 C.ar    1  ZINC000435005159   -0.1200
     30 C30       -10.9102   -3.3756   53.9686 C.ar    1  ZINC000435005159   -0.1200
     31 C31       -11.4014   -3.2675   55.2562 C.ar    1  ZINC000435005159   -0.1000
     32 H32        -8.9947   -0.2624   59.4002 H       1  ZINC000435005159    0.1000
     33 H33       -10.3238    0.0957   60.5288 H       1  ZINC000435005159    0.1000
     34 H34        -9.8499   -2.0392   61.7298 H       1  ZINC000435005159    0.0800
     35 H35        -8.4855   -2.3386   60.6267 H       1  ZINC000435005159    0.0800
     36 H36        -7.5197   -1.3316   62.5709 H       1  ZINC000435005159    0.0700
     37 H37        -7.5944   -0.0336   61.3551 H       1  ZINC000435005159    0.0700
     38 H38        -9.8787   -0.2270   63.1802 H       1  ZINC000435005159    0.4000
     39 H39        -8.0089    3.7526   64.3841 H       1  ZINC000435005159    0.1500
     40 H40        -9.4788    5.0438   65.9140 H       1  ZINC000435005159    0.1500
     41 H41       -11.6500    4.1011   66.5834 H       1  ZINC000435005159    0.1600
     42 H42       -11.0111    0.6839   64.3188 H       1  ZINC000435005159    0.1600
     43 H43       -10.9145   -0.1958   57.7406 H       1  ZINC000435005159    0.4000
     44 H44       -13.4118   -0.2748   57.6830 H       1  ZINC000435005159    0.0700
     45 H45       -13.7748   -1.1386   56.1695 H       1  ZINC000435005159    0.0800
     46 H46       -15.4531   -1.9971   57.5282 H       1  ZINC000435005159    0.0700
     47 H47       -14.1658   -3.1837   57.8494 H       1  ZINC000435005159    0.0700
     48 H48       -15.3048    0.1769   59.0553 H       1  ZINC000435005159    0.1200
     49 H49       -15.3304    0.7941   61.4389 H       1  ZINC000435005159    0.1200
     50 H50       -14.5146   -0.7973   63.1315 H       1  ZINC000435005159    0.1200
     51 H51       -13.6737   -3.0061   62.4406 H       1  ZINC000435005159    0.1200
     52 H52       -13.6524   -3.6251   60.0574 H       1  ZINC000435005159    0.1200
     53 H53       -11.2633    0.0844   55.6073 H       1  ZINC000435005159    0.1200
     54 H54       -10.3815   -0.1086   53.3164 H       1  ZINC000435005159    0.1200
     55 H55       -10.1558   -2.3245   52.2667 H       1  ZINC000435005159    0.1200
     56 H56       -10.8114   -4.3475   53.5081 H       1  ZINC000435005159    0.1200
     57 H57       -11.6889   -4.1548   55.8007 H       1  ZINC000435005159    0.1200
@<TRIPOS>BOND
     1     1     2    2
     2     2     3    1
     3     2    15   am
     4     3     4    1
     5     3    32    1
     6     3    33    1
     7     4     5    1
     8     4    34    1
     9     4    35    1
    10     5     6    1
    11     5    36    1
    12     5    37    1
    13     6     7   am
    14     6    38    1
    15     7     8    2
    16     7     9    1
    17     9    14   ar
    18     9    10   ar
    19    10    11   ar
    20    10    39    1
    21    11    12   ar
    22    11    40    1
    23    12    13   ar
    24    12    41    1
    25    13    14   ar
    26    14    42    1
    27    15    16    1
    28    15    43    1
    29    16    17    1
    30    16    18    1
    31    16    26    1
    32    18    19    1
    33    18    44    1
    34    18    45    1
    35    19    20    1
    36    19    46    1
    37    19    47    1
    38    20    25   ar
    39    20    21   ar
    40    21    22   ar
    41    21    48    1
    42    22    23   ar
    43    22    49    1
    44    23    24   ar
    45    23    50    1
    46    24    25   ar
    47    24    51    1
    48    25    52    1
    49    26    31   ar
    50    26    27   ar
    51    27    28   ar
    52    27    53    1
    53    28    29   ar
    54    28    54    1
    55    29    30   ar
    56    29    55    1
    57    30    31   ar
    58    30    56    1
    59    31    57    1
@<TRIPOS>SUBSTRUCTURE
     1 ZINC000435005159        1 TEMP              0 ****  ****    0 ROOT


##########                                Name:    ZINC000375477402
##########                DOCK_Rotatable_Bonds:                   5
##########                         Heavy_Atoms:                  26
##########                    Molecular_Weight:             378.342
##########                DOCK_Rotatable_Bonds:                   5
##########                       Formal_Charge:         -1.2666e-07
##########                     HBond_Acceptors:                   9
##########                        HBond_Donors:                   1
##########                         Heavy_Atoms:                  26
##########                          Grid_Score:          -28.660734
##########                     Grid_vdw_energy:          -28.161947
##########                      Grid_es_energy:           -0.498786
##########           Internal_energy_repulsive:           13.190420

@<TRIPOS>MOLECULE
ZINC000375477402
 45 47 1 0 0
SMALL
USER_CHARGES


@<TRIPOS>ATOM
      1 O1         -4.1175    1.5913   50.5338 O.2     1  ZINC000375477402   -0.5600
      2 C2         -3.1078    2.0643   50.0487 C.2     1  ZINC000375477402    0.7200
      3 N3         -2.6483    3.2562   50.4783 N.am    1  ZINC000375477402   -0.7300
      4 C4         -3.3686    3.9847   51.5256 C.3     1  ZINC000375477402    0.1800
      5 H5         -4.4099    3.6631   51.5414 H       1  ZINC000375477402    0.1500
      6 C6         -2.7344    3.6997   52.8627 C.ar    1  ZINC000375477402   -0.1300
      7 C7         -3.5254    3.5665   53.9883 C.ar    1  ZINC000375477402   -0.0800
      8 C8         -2.9453    3.3051   55.2157 C.ar    1  ZINC000375477402   -0.0900
      9 C9         -1.5730    3.1765   55.3197 C.ar    1  ZINC000375477402   -0.1100
     10 C10        -0.7782    3.3094   54.1945 C.ar    1  ZINC000375477402    0.0800
     11 F11         0.5631    3.1837   54.2953 F       1  ZINC000375477402   -0.1200
     12 C12        -1.3605    3.5658   52.9625 C.ar    1  ZINC000375477402    0.1000
     13 F13        -0.5867    3.6959   51.8628 F       1  ZINC000375477402   -0.1100
     14 C14        -3.3029    5.4863   51.2397 C.3     1  ZINC000375477402    0.4400
     15 F15        -3.9596    6.1842   52.2588 F       1  ZINC000375477402   -0.1600
     16 F16        -1.9652    5.8922   51.1834 F       1  ZINC000375477402   -0.1700
     17 F17        -3.9238    5.7554   50.0151 F       1  ZINC000375477402   -0.1800
     18 N18        -2.4452    1.3941   49.0852 N.am    1  ZINC000375477402   -0.6300
     19 C19        -2.8340    0.0864   48.5247 C.3     1  ZINC000375477402    0.1000
     20 C20        -2.1861    0.0476   47.1168 C.3     1  ZINC000375477402   -0.1200
     21 C21        -0.8502    0.7808   47.3714 C.3     1  ZINC000375477402   -0.1100
     22 C22        -1.2171    1.8486   48.4131 C.3     1  ZINC000375477402    0.1400
     23 C23         0.1848   -0.1894   47.9270 C.3     1  ZINC000375477402   -0.1100
     24 C24         1.5172    0.5469   48.1094 C.3     1  ZINC000375477402   -0.1600
     25 C25         1.9301    1.1717   46.7740 C.3     1  ZINC000375477402    0.0600
     26 O26         0.9069    2.0644   46.3283 O.3     1  ZINC000375477402   -0.3800
     27 C27        -0.3534    1.4321   46.0879 C.3     1  ZINC000375477402    0.0800
     28 H28        -1.8406    3.6316   50.0942 H       1  ZINC000375477402    0.4000
     29 H29        -4.5978    3.6670   53.9090 H       1  ZINC000375477402    0.1400
     30 H30        -3.5649    3.2017   56.0942 H       1  ZINC000375477402    0.1500
     31 H31        -1.1210    2.9727   56.2791 H       1  ZINC000375477402    0.1500
     32 H32        -2.4447   -0.7221   49.1435 H       1  ZINC000375477402    0.0700
     33 H33        -3.9187    0.0154   48.4449 H       1  ZINC000375477402    0.0700
     34 H34        -2.0132   -0.9791   46.7943 H       1  ZINC000375477402    0.0900
     35 H35        -2.7954    0.5862   46.3911 H       1  ZINC000375477402    0.0800
     36 H36        -1.3895    2.8050   47.9195 H       1  ZINC000375477402    0.0800
     37 H37        -0.4146    1.9449   49.1445 H       1  ZINC000375477402    0.0700
     38 H38        -0.1545   -0.5724   48.8894 H       1  ZINC000375477402    0.0700
     39 H39         0.3185   -1.0174   47.2309 H       1  ZINC000375477402    0.0700
     40 H40         1.4012    1.3305   48.8581 H       1  ZINC000375477402    0.0700
     41 H41         2.2822   -0.1586   48.4337 H       1  ZINC000375477402    0.0800
     42 H42         2.8617    1.7224   46.9032 H       1  ZINC000375477402    0.1000
     43 H43         2.0732    0.3847   46.0336 H       1  ZINC000375477402    0.0500
     44 H44        -0.2364    0.6710   45.3164 H       1  ZINC000375477402    0.0600
     45 H45        -1.0761    2.1774   45.7557 H       1  ZINC000375477402    0.1000
@<TRIPOS>BOND
     1     1     2    2
     2     2     3   am
     3     2    18   am
     4     3     4    1
     5     3    28    1
     6     4     5    1
     7     4     6    1
     8     4    14    1
     9     6    12   ar
    10     6     7   ar
    11     7     8   ar
    12     7    29    1
    13     8     9   ar
    14     8    30    1
    15     9    10   ar
    16     9    31    1
    17    10    11    1
    18    10    12   ar
    19    12    13    1
    20    14    15    1
    21    14    16    1
    22    14    17    1
    23    18    22    1
    24    18    19    1
    25    19    20    1
    26    19    32    1
    27    19    33    1
    28    20    21    1
    29    20    34    1
    30    20    35    1
    31    21    27    1
    32    21    22    1
    33    21    23    1
    34    22    36    1
    35    22    37    1
    36    23    24    1
    37    23    38    1
    38    23    39    1
    39    24    25    1
    40    24    40    1
    41    24    41    1
    42    25    26    1
    43    25    42    1
    44    25    43    1
    45    26    27    1
    46    27    44    1
    47    27    45    1
@<TRIPOS>SUBSTRUCTURE
     1 ZINC000375477402        1 TEMP              0 ****  ****    0 ROOT


##########                                Name:    ZINC000274225049
##########                DOCK_Rotatable_Bonds:                   6
##########                         Heavy_Atoms:                  25
##########                    Molecular_Weight:             380.895
##########                DOCK_Rotatable_Bonds:                   6
##########                       Formal_Charge:           0.0200006
##########                     HBond_Acceptors:                   7
##########                        HBond_Donors:                   2
##########                         Heavy_Atoms:                  25
##########                          Grid_Score:          -28.648880
##########                     Grid_vdw_energy:          -27.219507
##########                      Grid_es_energy:           -1.429372
##########           Internal_energy_repulsive:           12.899088

@<TRIPOS>MOLECULE
ZINC000274225049
 46 48 1 0 0
SMALL
USER_CHARGES


@<TRIPOS>ATOM
      1 C1        -12.1088   -0.3203   58.6551 C.3     1  ZINC000274225049   -0.1600
      2 C2        -10.6638   -0.5222   58.1950 C.3     1  ZINC000274225049    0.2000
      3 H3        -10.4497   -1.5889   58.1272 H       1  ZINC000274225049    0.1100
      4 N4         -9.7528    0.0983   59.1600 N.am    1  ZINC000274225049   -0.7400
      5 C5         -9.4521   -0.5389   60.3089 C.2     1  ZINC000274225049    0.7100
      6 O6         -9.9358   -1.6293   60.5438 O.2     1  ZINC000274225049   -0.5800
      7 N7         -8.6152    0.0327   61.1974 N.am    1  ZINC000274225049   -0.7500
      8 C8         -8.2870   -0.6605   62.4455 C.3     1  ZINC000274225049    0.1500
      9 C9         -8.4818    0.2937   63.6254 C.3     1  ZINC000274225049   -0.1000
     10 H10        -9.5181    0.6289   63.6670 H       1  ZINC000274225049    0.1000
     11 C11        -7.5417    1.5038   63.4852 C.3     1  ZINC000274225049   -0.1100
     12 C12        -7.5070    2.2611   64.8277 C.3     1  ZINC000274225049   -0.5900
     13 S13        -7.8543    0.9925   66.0990 S.o2    1  ZINC000274225049    2.3900
     14 O14        -6.6844    0.7701   66.8743 O.2     1  ZINC000274225049   -0.9300
     15 O15        -9.0836    1.2962   66.7438 O.2     1  ZINC000274225049   -0.9300
     16 C16        -8.0995   -0.4152   64.9504 C.3     1  ZINC000274225049   -0.5900
     17 C17       -10.4735    0.1151   56.8427 C.ar    1  ZINC000274225049   -0.0700
     18 C18       -10.6764   -0.6365   55.6732 C.ar    1  ZINC000274225049   -0.0300
     19 C19       -11.0582   -1.9879   55.7312 C.ar    1  ZINC000274225049   -0.1100
     20 C20       -11.2462   -2.6846   54.5775 C.ar    1  ZINC000274225049   -0.1100
     21 C21       -11.0659   -2.0783   53.3355 C.ar    1  ZINC000274225049   -0.1100
     22 C22       -10.6965   -0.7718   53.2405 C.ar    1  ZINC000274225049   -0.1000
     23 C23       -10.4931   -0.0200   54.4102 C.ar    1  ZINC000274225049   -0.0400
     24 C24       -10.1117    1.3321   54.3522 C.ar    1  ZINC000274225049   -0.0300
     25 Cl25       -9.8818    2.1092   52.8169 Cl      1  ZINC000274225049   -0.0600
     26 C26        -9.9240    2.0291   55.5078 C.ar    1  ZINC000274225049   -0.1000
     27 C27       -10.1094    1.4236   56.7485 C.ar    1  ZINC000274225049   -0.1000
     28 H28       -12.2466   -0.7813   59.6331 H       1  ZINC000274225049    0.0700
     29 H29       -12.3229    0.7464   58.7228 H       1  ZINC000274225049    0.0700
     30 H30       -12.7867   -0.7820   57.9371 H       1  ZINC000274225049    0.0800
     31 H31        -9.3660    0.9678   58.9720 H       1  ZINC000274225049    0.4000
     32 H32        -8.2303    0.9033   61.0105 H       1  ZINC000274225049    0.4000
     33 H33        -8.9417   -1.5239   62.5645 H       1  ZINC000274225049    0.0800
     34 H34        -7.2494   -0.9929   62.4144 H       1  ZINC000274225049    0.0800
     35 H35        -6.5385    1.1611   63.2318 H       1  ZINC000274225049    0.0900
     36 H36        -7.9100    2.1651   62.7009 H       1  ZINC000274225049    0.0900
     37 H37        -6.5223    2.6995   64.9897 H       1  ZINC000274225049    0.1400
     38 H38        -8.2744    3.0349   64.8457 H       1  ZINC000274225049    0.1400
     39 H39        -8.9095   -1.0584   65.2940 H       1  ZINC000274225049    0.1400
     40 H40        -7.1767   -0.9832   64.8320 H       1  ZINC000274225049    0.1400
     41 H41       -11.2013   -2.4709   56.6866 H       1  ZINC000274225049    0.1300
     42 H42       -11.5392   -3.7230   54.6248 H       1  ZINC000274225049    0.1300
     43 H43       -11.2212   -2.6539   52.4350 H       1  ZINC000274225049    0.1300
     44 H44       -10.5601   -0.3154   52.2712 H       1  ZINC000274225049    0.1300
     45 H45        -9.6307    3.0675   55.4610 H       1  ZINC000274225049    0.1300
     46 H46        -9.9541    1.9986   57.6494 H       1  ZINC000274225049    0.1300
@<TRIPOS>BOND
     1     1     2    1
     2     1    28    1
     3     1    29    1
     4     1    30    1
     5     2     3    1
     6     2     4    1
     7     2    17    1
     8     4     5   am
     9     4    31    1
    10     5     6    2
    11     5     7   am
    12     7     8    1
    13     7    32    1
    14     8     9    1
    15     8    33    1
    16     8    34    1
    17     9    10    1
    18     9    16    1
    19     9    11    1
    20    11    12    1
    21    11    35    1
    22    11    36    1
    23    12    13    1
    24    12    37    1
    25    12    38    1
    26    13    14    2
    27    13    15    2
    28    13    16    1
    29    16    39    1
    30    16    40    1
    31    17    27   ar
    32    17    18   ar
    33    18    23   ar
    34    18    19   ar
    35    19    20   ar
    36    19    41    1
    37    20    21   ar
    38    20    42    1
    39    21    22   ar
    40    21    43    1
    41    22    23   ar
    42    22    44    1
    43    23    24   ar
    44    24    25    1
    45    24    26   ar
    46    26    27   ar
    47    26    45    1
    48    27    46    1
@<TRIPOS>SUBSTRUCTURE
     1 ZINC000274225049        1 TEMP              0 ****  ****    0 ROOT


##########                                Name:    ZINC000846412382
##########                DOCK_Rotatable_Bonds:                   6
##########                         Heavy_Atoms:                  26
##########                    Molecular_Weight:             370.475
##########                DOCK_Rotatable_Bonds:                   6
##########                       Formal_Charge:               -0.03
##########                     HBond_Acceptors:                   7
##########                        HBond_Donors:                   4
##########                         Heavy_Atoms:                  26
##########                          Grid_Score:          -28.613653
##########                     Grid_vdw_energy:          -26.281912
##########                      Grid_es_energy:           -2.331741
##########           Internal_energy_repulsive:           23.702587

@<TRIPOS>MOLECULE
ZINC000846412382
 48 50 1 0 0
SMALL
USER_CHARGES


@<TRIPOS>ATOM
      1 C1         -9.2440    2.3562   56.8362 C.3     1  ZINC000846412382   -0.1400
      2 C2         -9.6296    1.1002   57.5742 C.2     1  ZINC000846412382    0.0300
      3 C3        -10.4358    0.1754   57.0377 C.2     1  ZINC000846412382   -0.2700
      4 C4        -11.0318    0.2624   55.6990 C.2     1  ZINC000846412382    0.6000
      5 O5        -12.1096    0.8061   55.5471 O.2     1  ZINC000846412382   -0.5200
      6 N6        -10.3851   -0.2600   54.6382 N.am    1  ZINC000846412382   -0.7100
      7 C7        -10.9808   -0.1747   53.3024 C.3     1  ZINC000846412382    0.1200
      8 H8        -11.7683    0.5789   53.3033 H       1  ZINC000846412382    0.1000
      9 C9         -9.9037    0.2144   52.2877 C.3     1  ZINC000846412382   -0.1700
     10 C10       -11.5743   -1.5322   52.9210 C.3     1  ZINC000846412382    0.1700
     11 C11       -10.6440   -2.6484   53.4003 C.3     1  ZINC000846412382   -0.1400
     12 O12       -11.7168   -1.6079   51.5011 O.3     1  ZINC000846412382   -0.5500
     13 C13       -12.9248   -1.6905   53.5707 C.ar    1  ZINC000846412382   -0.1200
     14 C14       -13.0213   -2.2167   54.8453 C.ar    1  ZINC000846412382   -0.1100
     15 C15       -14.2601   -2.3619   55.4412 C.ar    1  ZINC000846412382   -0.1200
     16 C16       -15.4024   -1.9802   54.7627 C.ar    1  ZINC000846412382   -0.1200
     17 C17       -15.3059   -1.4531   53.4884 C.ar    1  ZINC000846412382   -0.1200
     18 C18       -14.0667   -1.3040   52.8942 C.ar    1  ZINC000846412382   -0.1000
     19 S19       -10.6813   -1.1556   58.1557 S.3     1  ZINC000846412382    0.2000
     20 C20        -9.6498   -0.3979   59.3615 C.ar    1  ZINC000846412382    0.1400
     21 N21        -9.2884   -0.7918   60.5879 N.ar    1  ZINC000846412382   -0.5300
     22 C22        -8.4936   -0.0552   61.3299 C.ar    1  ZINC000846412382    0.3900
     23 C23        -8.1177   -0.5466   62.7040 C.3     1  ZINC000846412382   -0.0900
     24 N24        -8.0125    1.1015   60.9120 N.ar    1  ZINC000846412382   -0.5800
     25 C25        -8.3115    1.5781   59.7131 C.ar    1  ZINC000846412382    0.5100
     26 N26        -7.7997    2.7889   59.2924 N.pl3   1  ZINC000846412382   -0.8300
     27 C27        -9.1648    0.8193   58.8632 C.ar    1  ZINC000846412382   -0.2500
     28 H28        -8.2871    2.2048   56.3368 H       1  ZINC000846412382    0.0800
     29 H29       -10.0076    2.5911   56.0949 H       1  ZINC000846412382    0.1100
     30 H30        -9.1582    3.1813   57.5434 H       1  ZINC000846412382    0.0700
     31 H31        -9.5253   -0.6924   54.7591 H       1  ZINC000846412382    0.4000
     32 H32        -9.1162   -0.5393   52.2869 H       1  ZINC000846412382    0.0600
     33 H33       -10.3469    0.2778   51.2939 H       1  ZINC000846412382    0.0800
     34 H34        -9.4809    1.1815   52.5594 H       1  ZINC000846412382    0.0700
     35 H35       -10.5352   -2.5908   54.4833 H       1  ZINC000846412382    0.0700
     36 H36       -11.0667   -3.6156   53.1285 H       1  ZINC000846412382    0.0700
     37 H37        -9.6671   -2.5340   52.9304 H       1  ZINC000846412382    0.0700
     38 H38       -12.2416   -0.8906   51.1198 H       1  ZINC000846412382    0.3800
     39 H39       -12.1288   -2.5149   55.3753 H       1  ZINC000846412382    0.1300
     40 H40       -14.3355   -2.7737   56.4367 H       1  ZINC000846412382    0.1200
     41 H41       -16.3703   -2.0943   55.2280 H       1  ZINC000846412382    0.1200
     42 H42       -16.1984   -1.1553   52.9582 H       1  ZINC000846412382    0.1200
     43 H43       -13.9913   -0.8922   51.8986 H       1  ZINC000846412382    0.1300
     44 H44        -7.2105   -1.1474   62.6395 H       1  ZINC000846412382    0.0900
     45 H45        -7.9426    0.3064   63.3596 H       1  ZINC000846412382    0.0900
     46 H46        -8.9279   -1.1541   63.1069 H       1  ZINC000846412382    0.0900
     47 H47        -7.4963    3.4400   59.9443 H       1  ZINC000846412382    0.4100
     48 H48        -7.7432    2.9886   58.3450 H       1  ZINC000846412382    0.4200
@<TRIPOS>BOND
     1     1     2    1
     2     1    28    1
     3     1    29    1
     4     1    30    1
     5     2    27    1
     6     2     3    2
     7     3     4    1
     8     3    19    1
     9     4     5    2
    10     4     6   am
    11     6     7    1
    12     6    31    1
    13     7     8    1
    14     7     9    1
    15     7    10    1
    16     9    32    1
    17     9    33    1
    18     9    34    1
    19    10    11    1
    20    10    12    1
    21    10    13    1
    22    11    35    1
    23    11    36    1
    24    11    37    1
    25    12    38    1
    26    13    18   ar
    27    13    14   ar
    28    14    15   ar
    29    14    39    1
    30    15    16   ar
    31    15    40    1
    32    16    17   ar
    33    16    41    1
    34    17    18   ar
    35    17    42    1
    36    18    43    1
    37    19    20    1
    38    20    27   ar
    39    20    21   ar
    40    21    22   ar
    41    22    23    1
    42    22    24   ar
    43    23    44    1
    44    23    45    1
    45    23    46    1
    46    24    25   ar
    47    25    26    1
    48    25    27   ar
    49    26    47    1
    50    26    48    1
@<TRIPOS>SUBSTRUCTURE
     1 ZINC000846412382        1 TEMP              0 ****  ****    0 ROOT


##########                                Name:    ZINC000548281822
##########                DOCK_Rotatable_Bonds:                   6
##########                         Heavy_Atoms:                  24
##########                    Molecular_Weight:             332.406
##########                DOCK_Rotatable_Bonds:                   6
##########                       Formal_Charge:        -5.58794e-08
##########                     HBond_Acceptors:                   8
##########                        HBond_Donors:                   2
##########                         Heavy_Atoms:                  24
##########                          Grid_Score:          -28.602865
##########                     Grid_vdw_energy:          -28.680231
##########                      Grid_es_energy:            0.077365
##########           Internal_energy_repulsive:            6.478028

@<TRIPOS>MOLECULE
ZINC000548281822
 48 50 1 0 0
SMALL
USER_CHARGES


@<TRIPOS>ATOM
      1 C1         -3.1086    5.1130   52.4437 C.3     1  ZINC000548281822   -0.1700
      2 C2         -2.7266    3.6507   52.6819 C.3     1  ZINC000548281822    0.2600
      3 H3         -3.6014    3.0177   52.5325 H       1  ZINC000548281822    0.1400
      4 N4         -1.6751    3.2610   51.7393 N.am    1  ZINC000548281822   -0.7400
      5 C5         -2.0036    2.7947   50.5182 C.2     1  ZINC000548281822    0.7100
      6 O6         -3.1728    2.6961   50.1994 O.2     1  ZINC000548281822   -0.5700
      7 N7         -1.0362    2.4376   49.6504 N.am    1  ZINC000548281822   -0.7400
      8 C8         -1.3933    1.9324   48.3225 C.3     1  ZINC000548281822    0.1600
      9 H9         -2.1850    2.5503   47.8988 H       1  ZINC000548281822    0.1000
     10 C10        -0.1642    1.9794   47.4099 C.3     1  ZINC000548281822   -0.1400
     11 C11        -0.5859    1.6768   45.9679 C.3     1  ZINC000548281822    0.1100
     12 N12        -1.3889    0.4518   45.9581 N.pl3   1  ZINC000548281822   -0.4600
     13 C13        -1.6901   -0.3407   44.8908 C.2     1  ZINC000548281822   -0.0500
     14 C14        -2.4496   -1.3511   45.3607 C.2     1  ZINC000548281822   -0.0300
     15 N15        -2.6053   -1.1751   46.6829 N.2     1  ZINC000548281822   -0.4900
     16 C16        -1.9740   -0.0980   47.0486 C.2     1  ZINC000548281822    0.2100
     17 C17        -1.8818    0.4831   48.4400 C.3     1  ZINC000548281822   -0.0500
     18 C18        -2.2229    3.4864   54.0926 C.2     1  ZINC000548281822    0.1700
     19 N19        -0.9704    3.4967   54.4809 N.2     1  ZINC000548281822   -0.4600
     20 C20        -1.0029    3.3163   55.8132 C.2     1  ZINC000548281822    0.1900
     21 C21         0.1885    3.2525   56.7339 C.3     1  ZINC000548281822    0.0200
     22 C22         0.3826    4.6105   57.4116 C.3     1  ZINC000548281822   -0.1400
     23 C23        -0.0472    2.1800   57.7994 C.3     1  ZINC000548281822   -0.1400
     24 C24         1.4395    2.9023   55.9258 C.3     1  ZINC000548281822   -0.1400
     25 N25        -2.2502    3.2074   56.1610 N.2     1  ZINC000548281822   -0.3700
     26 O26        -2.9676    3.3082   55.1879 O.3     1  ZINC000548281822    0.0800
     27 H27        -2.2339    5.7460   52.5932 H       1  ZINC000548281822    0.0700
     28 H28        -3.4730    5.2318   51.4234 H       1  ZINC000548281822    0.0900
     29 H29        -3.8910    5.4030   53.1450 H       1  ZINC000548281822    0.0800
     30 H30        -0.7423    3.3385   51.9941 H       1  ZINC000548281822    0.4000
     31 H31        -0.1034    2.5151   49.9052 H       1  ZINC000548281822    0.4000
     32 H32         0.2851    2.9713   47.4564 H       1  ZINC000548281822    0.1000
     33 H33         0.5617    1.2361   47.7397 H       1  ZINC000548281822    0.0800
     34 H34        -1.1781    2.5050   45.5790 H       1  ZINC000548281822    0.0900
     35 H35         0.3010    1.5371   45.3496 H       1  ZINC000548281822    0.1000
     36 H36        -1.3812   -0.1885   43.8672 H       1  ZINC000548281822    0.1800
     37 H37        -2.8613   -2.1602   44.7758 H       1  ZINC000548281822    0.1700
     38 H38        -1.1748   -0.0959   49.0342 H       1  ZINC000548281822    0.0900
     39 H39        -2.8637    0.4627   48.9128 H       1  ZINC000548281822    0.1000
     40 H40        -0.5087    4.8600   57.9873 H       1  ZINC000548281822    0.0600
     41 H41         1.2443    4.5644   58.0775 H       1  ZINC000548281822    0.0700
     42 H42         0.5505    5.3746   56.6525 H       1  ZINC000548281822    0.0700
     43 H43        -0.1855    1.2126   57.3167 H       1  ZINC000548281822    0.0600
     44 H44         0.8145    2.1339   58.4653 H       1  ZINC000548281822    0.0700
     45 H45        -0.9384    2.4295   58.3752 H       1  ZINC000548281822    0.0600
     46 H46         1.6074    3.6663   55.1667 H       1  ZINC000548281822    0.0700
     47 H47         2.3011    2.8562   56.5917 H       1  ZINC000548281822    0.0700
     48 H48         1.3012    1.9349   55.4431 H       1  ZINC000548281822    0.0600
@<TRIPOS>BOND
     1     1     2    1
     2     1    27    1
     3     1    28    1
     4     1    29    1
     5     2     3    1
     6     2     4    1
     7     2    18    1
     8     4     5   am
     9     4    30    1
    10     5     6    2
    11     5     7   am
    12     7     8    1
    13     7    31    1
    14     8     9    1
    15     8    17    1
    16     8    10    1
    17    10    11    1
    18    10    32    1
    19    10    33    1
    20    11    12    1
    21    11    34    1
    22    11    35    1
    23    12    16    1
    24    12    13    1
    25    13    14    2
    26    13    36    1
    27    14    15    1
    28    14    37    1
    29    15    16    2
    30    16    17    1
    31    17    38    1
    32    17    39    1
    33    18    26    1
    34    18    19    2
    35    19    20    1
    36    20    21    1
    37    20    25    2
    38    21    22    1
    39    21    23    1
    40    21    24    1
    41    22    40    1
    42    22    41    1
    43    22    42    1
    44    23    43    1
    45    23    44    1
    46    23    45    1
    47    24    46    1
    48    24    47    1
    49    24    48    1
    50    25    26    1
@<TRIPOS>SUBSTRUCTURE
     1 ZINC000548281822        1 TEMP              0 ****  ****    0 ROOT


##########                                Name:    ZINC001122903793
##########                DOCK_Rotatable_Bonds:                   4
##########                         Heavy_Atoms:                  25
##########                    Molecular_Weight:             399.968
##########                DOCK_Rotatable_Bonds:                   4
##########                       Formal_Charge:           0.0100003
##########                     HBond_Acceptors:                   9
##########                        HBond_Donors:                   0
##########                         Heavy_Atoms:                  25
##########                          Grid_Score:          -28.600454
##########                     Grid_vdw_energy:          -27.767887
##########                      Grid_es_energy:           -0.832566
##########           Internal_energy_repulsive:           15.442027

@<TRIPOS>MOLECULE
ZINC001122903793
 47 50 1 0 0
SMALL
USER_CHARGES


@<TRIPOS>ATOM
      1 C1        -14.1591   -0.0682   52.5426 C.3     1  ZINC001122903793   -0.1400
      2 C2        -12.7491   -0.3392   53.0714 C.3     1  ZINC001122903793   -0.0400
      3 H3        -12.2747    0.6023   53.3481 H       1  ZINC001122903793    0.1000
      4 S4        -11.7628   -1.1660   51.7861 S.3     1  ZINC001122903793   -0.2500
      5 C5        -10.2626   -1.6298   52.7043 C.3     1  ZINC001122903793   -0.0800
      6 C6        -10.6818   -2.3735   53.9770 C.3     1  ZINC001122903793    0.0700
      7 N7        -11.4820   -1.4906   54.8285 N.3     1  ZINC001122903793   -0.4800
      8 C8        -11.5399   -1.9712   56.1265 C.2     1  ZINC001122903793    0.3700
      9 N9        -12.1307   -3.0746   56.5219 N.2     1  ZINC001122903793   -0.2900
     10 N10       -11.9923   -3.2206   57.7911 N.2     1  ZINC001122903793   -0.2400
     11 C11       -11.3026   -2.2163   58.2854 C.2     1  ZINC001122903793    0.2600
     12 C12       -10.9329   -2.0182   59.6964 C.2     1  ZINC001122903793   -0.1600
     13 C13       -11.7906   -1.9159   60.7394 C.2     1  ZINC001122903793    0.1600
     14 Cl14      -13.5145   -2.0064   60.5560 Cl      1  ZINC001122903793    0.0300
     15 N15       -11.2041   -1.7420   61.9027 N.2     1  ZINC001122903793   -0.4600
     16 C16        -9.9134   -1.6907   61.9138 C.2     1  ZINC001122903793    0.0300
     17 S17        -9.2952   -1.8795   60.3313 S.3     1  ZINC001122903793    0.2200
     18 N18       -10.9875   -1.3876   57.2319 N.pl3   1  ZINC001122903793   -0.4600
     19 C19       -10.2257   -0.1374   57.2859 C.3     1  ZINC001122903793    0.1100
     20 C20       -10.9145    0.8386   58.2418 C.3     1  ZINC001122903793    0.0700
     21 H21       -10.9405    0.4251   59.2499 H       1  ZINC001122903793    0.0800
     22 C22       -10.1800    2.2029   58.2388 C.3     1  ZINC001122903793   -0.1500
     23 C23       -11.3225    3.1538   58.6888 C.3     1  ZINC001122903793   -0.1500
     24 C24       -12.5651    2.4996   58.0474 C.3     1  ZINC001122903793    0.0500
     25 O25       -12.2462    1.1263   57.7865 O.3     1  ZINC001122903793   -0.3700
     26 C26       -12.8263   -1.2565   54.2965 C.3     1  ZINC001122903793    0.1000
     27 H27       -13.2707   -2.2078   54.0038 H       1  ZINC001122903793    0.0800
     28 C28       -13.6925   -0.6012   55.3741 C.3     1  ZINC001122903793   -0.1500
     29 H29       -14.7499    0.4209   53.3170 H       1  ZINC001122903793    0.0800
     30 H30       -14.1007    0.5787   51.6671 H       1  ZINC001122903793    0.0700
     31 H31       -14.6310   -1.0112   52.2666 H       1  ZINC001122903793    0.0700
     32 H32        -9.6422   -2.2801   52.0876 H       1  ZINC001122903793    0.1200
     33 H33        -9.7047   -0.7324   52.9714 H       1  ZINC001122903793    0.0900
     34 H34       -11.2722   -3.2491   53.7070 H       1  ZINC001122903793    0.0700
     35 H35        -9.7920   -2.6917   54.5201 H       1  ZINC001122903793    0.0900
     36 H36        -9.3100   -1.5524   62.7986 H       1  ZINC001122903793    0.2100
     37 H37        -9.2159   -0.3423   57.6413 H       1  ZINC001122903793    0.1200
     38 H38       -10.1780    0.3023   56.2897 H       1  ZINC001122903793    0.1000
     39 H39        -9.3590    2.2086   58.9556 H       1  ZINC001122903793    0.0900
     40 H40        -9.8280    2.4574   57.2391 H       1  ZINC001122903793    0.0800
     41 H41       -11.4093    3.1690   59.7752 H       1  ZINC001122903793    0.0800
     42 H42       -11.1675    4.1591   58.2969 H       1  ZINC001122903793    0.0900
     43 H43       -13.4096    2.5576   58.7342 H       1  ZINC001122903793    0.0700
     44 H44       -12.8101    3.0071   57.1144 H       1  ZINC001122903793    0.0700
     45 H45       -13.2476    0.3491   55.6697 H       1  ZINC001122903793    0.0600
     46 H46       -14.6933   -0.4264   54.9792 H       1  ZINC001122903793    0.0800
     47 H47       -13.7536   -1.2590   56.2410 H       1  ZINC001122903793    0.0600
@<TRIPOS>BOND
     1     1     2    1
     2     1    29    1
     3     1    30    1
     4     1    31    1
     5     2     3    1
     6     2    26    1
     7     2     4    1
     8     4     5    1
     9     5     6    1
    10     5    32    1
    11     5    33    1
    12     6     7    1
    13     6    34    1
    14     6    35    1
    15     7     8    1
    16     7    26    1
    17     8    18    1
    18     8     9    2
    19     9    10    1
    20    10    11    2
    21    11    12    1
    22    11    18    1
    23    12    17    1
    24    12    13    2
    25    13    14    1
    26    13    15    1
    27    15    16    2
    28    16    17    1
    29    16    36    1
    30    18    19    1
    31    19    20    1
    32    19    37    1
    33    19    38    1
    34    20    21    1
    35    20    25    1
    36    20    22    1
    37    22    23    1
    38    22    39    1
    39    22    40    1
    40    23    24    1
    41    23    41    1
    42    23    42    1
    43    24    25    1
    44    24    43    1
    45    24    44    1
    46    26    27    1
    47    26    28    1
    48    28    45    1
    49    28    46    1
    50    28    47    1
@<TRIPOS>SUBSTRUCTURE
     1 ZINC001122903793        1 TEMP              0 ****  ****    0 ROOT


##########                                Name:    ZINC000123469372
##########                DOCK_Rotatable_Bonds:                   7
##########                         Heavy_Atoms:                  25
##########                    Molecular_Weight:             341.382
##########                DOCK_Rotatable_Bonds:                   7
##########                       Formal_Charge:          -0.0300001
##########                     HBond_Acceptors:                   5
##########                        HBond_Donors:                   2
##########                         Heavy_Atoms:                  25
##########                          Grid_Score:          -28.599316
##########                     Grid_vdw_energy:          -26.317501
##########                      Grid_es_energy:           -2.281816
##########           Internal_energy_repulsive:           11.796447

@<TRIPOS>MOLECULE
ZINC000123469372
 45 47 1 0 0
SMALL
USER_CHARGES


@<TRIPOS>ATOM
      1 C1         -3.9070    5.6034   52.3649 C.3     1  ZINC000123469372   -0.1700
      2 C2         -3.9881    4.0779   52.2805 C.3     1  ZINC000123469372    0.1500
      3 H3         -3.4130    3.6378   53.0952 H       1  ZINC000123469372    0.0900
      4 C4         -5.4492    3.6379   52.3918 C.3     1  ZINC000123469372   -0.1600
      5 C5         -5.8933    3.7094   53.8541 C.3     1  ZINC000123469372    0.1500
      6 H6         -5.9617    4.7526   54.1624 H       1  ZINC000123469372    0.1100
      7 O7         -4.9402    3.0316   54.6752 O.3     1  ZINC000123469372   -0.5500
      8 C8         -7.2414    3.0523   54.0024 C.ar    1  ZINC000123469372   -0.1200
      9 C9         -8.2163    3.2506   53.0427 C.ar    1  ZINC000123469372   -0.1100
     10 C10        -9.4529    2.6478   53.1787 C.ar    1  ZINC000123469372   -0.1200
     11 C11        -9.7144    1.8465   54.2743 C.ar    1  ZINC000123469372   -0.1200
     12 C12        -8.7392    1.6474   55.2336 C.ar    1  ZINC000123469372   -0.1200
     13 C13        -7.5011    2.2467   55.0954 C.ar    1  ZINC000123469372   -0.1100
     14 N14        -3.4395    3.6299   50.9980 N.am    1  ZINC000123469372   -0.7100
     15 C15        -2.1463    3.2608   50.9103 C.2     1  ZINC000123469372    0.5700
     16 O16        -1.4337    3.3010   51.8963 O.2     1  ZINC000123469372   -0.5400
     17 C17        -1.5991    2.8120   49.6305 C.2     1  ZINC000123469372   -0.2200
     18 C18        -2.2440    1.8616   48.9099 C.2     1  ZINC000123469372    0.0000
     19 C19        -1.6388    1.4328   47.6394 C.ar    1  ZINC000123469372   -0.1200
     20 C20        -2.3708    0.7261   46.6864 C.ar    1  ZINC000123469372   -0.0900
     21 C21        -1.7612    0.3430   45.5070 C.ar    1  ZINC000123469372    0.0700
     22 F22        -2.4640   -0.3418   44.5783 F       1  ZINC000123469372   -0.1400
     23 C23        -0.4311    0.6588   45.2719 C.ar    1  ZINC000123469372   -0.1100
     24 C24         0.3029    1.3592   46.2117 C.ar    1  ZINC000123469372   -0.1200
     25 C25        -0.2909    1.7510   47.3976 C.ar    1  ZINC000123469372    0.1300
     26 O26         0.4024    2.4384   48.3389 O.3     1  ZINC000123469372   -0.3000
     27 C27        -0.3196    3.4081   49.1041 C.3     1  ZINC000123469372    0.1100
     28 H28        -4.3151    5.9367   53.3191 H       1  ZINC000123469372    0.0700
     29 H29        -2.8661    5.9168   52.2856 H       1  ZINC000123469372    0.0600
     30 H30        -4.4820    6.0435   51.5502 H       1  ZINC000123469372    0.0600
     31 H31        -6.0741    4.2973   51.7896 H       1  ZINC000123469372    0.0900
     32 H32        -5.5488    2.6140   52.0315 H       1  ZINC000123469372    0.0800
     33 H33        -4.8100    2.1023   54.4414 H       1  ZINC000123469372    0.3700
     34 H34        -8.0120    3.8767   52.1868 H       1  ZINC000123469372    0.1200
     35 H35       -10.2148    2.8034   52.4293 H       1  ZINC000123469372    0.1200
     36 H36       -10.6807    1.3762   54.3810 H       1  ZINC000123469372    0.1200
     37 H37        -8.9436    1.0215   56.0897 H       1  ZINC000123469372    0.1200
     38 H38        -6.7392    2.0912   55.8448 H       1  ZINC000123469372    0.1200
     39 H39        -4.0071    3.5991   50.2120 H       1  ZINC000123469372    0.4000
     40 H40        -3.1723    1.4328   49.2577 H       1  ZINC000123469372    0.1500
     41 H41        -3.4064    0.4796   46.8688 H       1  ZINC000123469372    0.1500
     42 H42         0.0356    0.3546   44.3468 H       1  ZINC000123469372    0.1500
     43 H43         1.3381    1.5998   46.0199 H       1  ZINC000123469372    0.1500
     44 H44        -0.5475    4.2675   48.4737 H       1  ZINC000123469372    0.0800
     45 H45         0.2941    3.7338   49.9441 H       1  ZINC000123469372    0.1100
@<TRIPOS>BOND
     1     1     2    1
     2     1    28    1
     3     1    29    1
     4     1    30    1
     5     2     3    1
     6     2     4    1
     7     2    14    1
     8     4     5    1
     9     4    31    1
    10     4    32    1
    11     5     6    1
    12     5     7    1
    13     5     8    1
    14     7    33    1
    15     8    13   ar
    16     8     9   ar
    17     9    10   ar
    18     9    34    1
    19    10    11   ar
    20    10    35    1
    21    11    12   ar
    22    11    36    1
    23    12    13   ar
    24    12    37    1
    25    13    38    1
    26    14    15   am
    27    14    39    1
    28    15    16    2
    29    15    17    1
    30    17    27    1
    31    17    18    2
    32    18    19    1
    33    18    40    1
    34    19    25   ar
    35    19    20   ar
    36    20    21   ar
    37    20    41    1
    38    21    22    1
    39    21    23   ar
    40    23    24   ar
    41    23    42    1
    42    24    25   ar
    43    24    43    1
    44    25    26    1
    45    26    27    1
    46    27    44    1
    47    27    45    1
@<TRIPOS>SUBSTRUCTURE
     1 ZINC000123469372        1 TEMP              0 ****  ****    0 ROOT


##########                                Name:    ZINC000826052721
##########                DOCK_Rotatable_Bonds:                   3
##########                         Heavy_Atoms:                  29
##########                    Molecular_Weight:             393.399
##########                DOCK_Rotatable_Bonds:                   3
##########                       Formal_Charge:        -4.47035e-07
##########                     HBond_Acceptors:                   9
##########                        HBond_Donors:                   2
##########                         Heavy_Atoms:                  29
##########                          Grid_Score:          -28.585688
##########                     Grid_vdw_energy:          -29.537497
##########                      Grid_es_energy:            0.951809
##########           Internal_energy_repulsive:           10.835837

@<TRIPOS>MOLECULE
ZINC000826052721
 46 50 1 0 0
SMALL
USER_CHARGES


@<TRIPOS>ATOM
      1 C1          3.8319    1.0848   48.4007 C.3     1  ZINC000826052721   -0.0400
      2 N2          2.3974    0.8122   48.5621 N.4     1  ZINC000826052721   -0.3800
      3 H3          2.1235    0.9982   49.5152 H       1  ZINC000826052721    0.4300
      4 C4          2.1253   -0.5912   48.2385 C.3     1  ZINC000826052721    0.0500
      5 C5          0.6437   -0.8601   48.2522 C.ar    1  ZINC000826052721   -0.1300
      6 C6          0.2092   -2.1726   48.3581 C.ar    1  ZINC000826052721   -0.1000
      7 C7         -1.1409   -2.4619   48.3682 C.ar    1  ZINC000826052721   -0.1000
      8 C8         -2.0653   -1.4388   48.2722 C.ar    1  ZINC000826052721   -0.0800
      9 C9         -1.6344   -0.1309   48.1682 C.ar    1  ZINC000826052721   -0.0800
     10 C10        -0.2795    0.1602   48.1591 C.ar    1  ZINC000826052721   -0.1200
     11 C11         0.1500    1.6008   48.0475 C.3     1  ZINC000826052721    0.1100
     12 H12         0.0093    2.0964   49.0081 H       1  ZINC000826052721    0.1100
     13 N13        -0.6625    2.2750   47.0262 N.3     1  ZINC000826052721   -0.6200
     14 C14        -0.2620    3.5880   46.8618 C.ar    1  ZINC000826052721    0.1600
     15 C15         0.5706    3.9622   45.8015 C.ar    1  ZINC000826052721   -0.0400
     16 C16         1.0408    2.9531   44.8304 C.2     1  ZINC000826052721    0.0700
     17 N17         2.2768    2.8302   44.3408 N.2     1  ZINC000826052721   -0.3800
     18 N18         2.2738    1.8283   43.5294 N.2     1  ZINC000826052721   -0.1600
     19 N19         1.0910    1.3236   43.4812 N.2     1  ZINC000826052721   -0.1700
     20 N20         0.3121    1.9876   44.2650 N.pl3   1  ZINC000826052721   -0.3400
     21 C21         0.9506    5.3053   45.6669 C.ar    1  ZINC000826052721    0.1800
     22 N22         0.5534    6.2202   46.5151 N.ar    1  ZINC000826052721   -0.4700
     23 C23        -0.2400    5.9267   47.5540 C.ar    1  ZINC000826052721    0.0900
     24 C24        -0.6505    6.9293   48.4514 C.ar    1  ZINC000826052721    0.1700
     25 F25        -0.2469    8.2060   48.2719 F       1  ZINC000826052721   -0.1100
     26 C26        -1.4579    6.6085   49.5026 C.ar    1  ZINC000826052721   -0.1900
     27 C27        -1.8851    5.2975   49.7053 C.ar    1  ZINC000826052721    0.1300
     28 F28        -2.6843    5.0104   50.7561 F       1  ZINC000826052721   -0.1300
     29 C29        -1.5051    4.3001   48.8544 C.ar    1  ZINC000826052721   -0.1500
     30 C30        -0.6759    4.5967   47.7636 C.ar    1  ZINC000826052721   -0.0600
     31 C31         1.6254    1.6704   47.6509 C.3     1  ZINC000826052721    0.0000
     32 H32         4.1256    0.8869   47.3698 H       1  ZINC000826052721    0.1200
     33 H33         4.0327    2.1287   48.6417 H       1  ZINC000826052721    0.1300
     34 H34         4.4016    0.4411   49.0709 H       1  ZINC000826052721    0.1200
     35 H35         2.6136   -1.2308   48.9738 H       1  ZINC000826052721    0.1400
     36 H36         2.5222   -0.8152   47.2483 H       1  ZINC000826052721    0.1400
     37 H37         0.9305   -2.9728   48.4335 H       1  ZINC000826052721    0.1300
     38 H38        -1.4741   -3.4858   48.4512 H       1  ZINC000826052721    0.1300
     39 H39        -3.1221   -1.6617   48.2790 H       1  ZINC000826052721    0.1300
     40 H40        -2.3564    0.6688   48.0940 H       1  ZINC000826052721    0.1400
     41 H41        -1.6444    2.2221   47.2523 H       1  ZINC000826052721    0.4100
     42 H42         1.5903    5.5915   44.8451 H       1  ZINC000826052721    0.1800
     43 H43        -1.7705    7.3819   50.1886 H       1  ZINC000826052721    0.1600
     44 H44        -1.8413    3.2873   49.0209 H       1  ZINC000826052721    0.1400
     45 H45         1.7458    1.3191   46.6262 H       1  ZINC000826052721    0.1400
     46 H46         1.9779    2.6987   47.7318 H       1  ZINC000826052721    0.1400
@<TRIPOS>BOND
     1     1     2    1
     2     1    32    1
     3     1    33    1
     4     1    34    1
     5     2     3    1
     6     2    31    1
     7     2     4    1
     8     4     5    1
     9     4    35    1
    10     4    36    1
    11     5    10   ar
    12     5     6   ar
    13     6     7   ar
    14     6    37    1
    15     7     8   ar
    16     7    38    1
    17     8     9   ar
    18     8    39    1
    19     9    10   ar
    20     9    40    1
    21    10    11    1
    22    11    12    1
    23    11    13    1
    24    11    31    1
    25    13    14    1
    26    13    41    1
    27    14    30   ar
    28    14    15   ar
    29    15    16    1
    30    15    21   ar
    31    16    20    1
    32    16    17    2
    33    17    18    1
    34    18    19    2
    35    19    20    1
    36    21    22   ar
    37    21    42    1
    38    22    23   ar
    39    23    30   ar
    40    23    24   ar
    41    24    25    1
    42    24    26   ar
    43    26    27   ar
    44    26    43    1
    45    27    28    1
    46    27    29   ar
    47    29    30   ar
    48    29    44    1
    49    31    45    1
    50    31    46    1
@<TRIPOS>SUBSTRUCTURE
     1 ZINC000826052721        1 TEMP              0 ****  ****    0 ROOT


##########                                Name:    ZINC000437443367
##########                DOCK_Rotatable_Bonds:                   8
##########                         Heavy_Atoms:                  24
##########                    Molecular_Weight:             334.434
##########                DOCK_Rotatable_Bonds:                   8
##########                       Formal_Charge:          -0.0500003
##########                     HBond_Acceptors:                   5
##########                        HBond_Donors:                   1
##########                         Heavy_Atoms:                  24
##########                          Grid_Score:          -28.581186
##########                     Grid_vdw_energy:          -26.800179
##########                      Grid_es_energy:           -1.781007
##########           Internal_energy_repulsive:           31.208658

@<TRIPOS>MOLECULE
ZINC000437443367
 51 52 1 0 0
SMALL
USER_CHARGES


@<TRIPOS>ATOM
      1 C1        -11.1418   -1.8083   61.6658 C.3     1  ZINC000437443367   -0.1200
      2 C2        -10.2094   -0.8739   60.9389 C.ar    1  ZINC000437443367   -0.1000
      3 C3        -10.2950   -0.7431   59.5671 C.ar    1  ZINC000437443367   -0.1200
      4 C4         -9.4350    0.1185   58.8975 C.ar    1  ZINC000437443367    0.1400
      5 N5         -9.5201    0.2530   57.5085 N.am    1  ZINC000437443367   -0.6400
      6 C6        -10.6002    0.8373   56.9531 C.2     1  ZINC000437443367    0.5000
      7 O7        -11.4989    1.2469   57.6586 O.2     1  ZINC000437443367   -0.4800
      8 C8        -10.6911    0.9810   55.4692 C.2     1  ZINC000437443367    0.5100
      9 O9        -10.6103    2.0795   54.9599 O.2     1  ZINC000437443367   -0.5200
     10 N10       -10.8628   -0.1095   54.6959 N.am    1  ZINC000437443367   -0.5700
     11 C11       -10.9603   -1.4356   55.3108 C.3     1  ZINC000437443367    0.0900
     12 C12       -12.3022   -1.5648   56.0346 C.3     1  ZINC000437443367   -0.1200
     13 C13       -12.3839   -2.9316   56.7171 C.3     1  ZINC000437443367   -0.0900
     14 C14       -13.6786   -3.0203   57.5276 C.3     1  ZINC000437443367   -0.1400
     15 C15       -12.3703   -4.0333   55.6555 C.3     1  ZINC000437443367   -0.1500
     16 C16       -10.9520    0.0315   53.2405 C.3     1  ZINC000437443367    0.1300
     17 C17        -9.6088   -0.3570   52.5887 C.3     1  ZINC000437443367   -0.1300
     18 C18        -9.7974   -1.8405   52.1853 C.3     1  ZINC000437443367   -0.1300
     19 C19       -11.2705   -1.8805   51.7085 C.3     1  ZINC000437443367   -0.1200
     20 C20       -12.0085   -0.9372   52.6809 C.3     1  ZINC000437443367   -0.1400
     21 C21        -8.4908    0.8465   59.6102 C.ar    1  ZINC000437443367   -0.1100
     22 C22        -8.4088    0.7124   60.9823 C.ar    1  ZINC000437443367   -0.1300
     23 C23        -9.2707   -0.1427   61.6482 C.ar    1  ZINC000437443367    0.0800
     24 F24        -9.1888   -0.2724   62.9904 F       1  ZINC000437443367   -0.1400
     25 H25       -12.0454   -1.2700   61.9519 H       1  ZINC000437443367    0.0800
     26 H26       -11.4058   -2.6394   61.0119 H       1  ZINC000437443367    0.0700
     27 H27       -10.6488   -2.1913   62.5592 H       1  ZINC000437443367    0.0700
     28 H28       -11.0296   -1.3103   59.0149 H       1  ZINC000437443367    0.1400
     29 H29        -8.8018   -0.0741   56.9447 H       1  ZINC000437443367    0.4200
     30 H30       -10.8893   -2.2006   54.5378 H       1  ZINC000437443367    0.0900
     31 H31       -10.1479   -1.5651   56.0260 H       1  ZINC000437443367    0.1000
     32 H32       -12.3877   -0.7784   56.7845 H       1  ZINC000437443367    0.0700
     33 H33       -13.1143   -1.4694   55.3138 H       1  ZINC000437443367    0.0600
     34 H34       -11.5296   -3.0573   57.3823 H       1  ZINC000437443367    0.0600
     35 H35       -14.5329   -2.8946   56.8625 H       1  ZINC000437443367    0.0600
     36 H36       -13.7368   -3.9941   58.0139 H       1  ZINC000437443367    0.0400
     37 H37       -13.6883   -2.2354   58.2839 H       1  ZINC000437443367    0.0600
     38 H38       -11.4479   -3.9702   55.0782 H       1  ZINC000437443367    0.0500
     39 H39       -12.4285   -5.0072   56.1418 H       1  ZINC000437443367    0.0500
     40 H40       -13.2245   -3.9077   54.9905 H       1  ZINC000437443367    0.0500
     41 H41       -11.2111    1.0577   52.9801 H       1  ZINC000437443367    0.1000
     42 H42        -9.4205    0.2568   51.7079 H       1  ZINC000437443367    0.0800
     43 H43        -8.7939   -0.2573   53.3058 H       1  ZINC000437443367    0.0700
     44 H44        -9.1213   -2.1091   51.3736 H       1  ZINC000437443367    0.0700
     45 H45        -9.6513   -2.4959   53.0439 H       1  ZINC000437443367    0.0700
     46 H46       -11.3506   -1.5126   50.6857 H       1  ZINC000437443367    0.0700
     47 H47       -11.6684   -2.8926   51.7832 H       1  ZINC000437443367    0.0700
     48 H48       -12.4550   -1.5121   53.4921 H       1  ZINC000437443367    0.0800
     49 H49       -12.7800   -0.3811   52.1482 H       1  ZINC000437443367    0.0700
     50 H50        -7.8211    1.5166   59.0917 H       1  ZINC000437443367    0.1600
     51 H51        -7.6749    1.2783   61.5369 H       1  ZINC000437443367    0.1400
@<TRIPOS>BOND
     1     1     2    1
     2     1    25    1
     3     1    26    1
     4     1    27    1
     5     2    23   ar
     6     2     3   ar
     7     3     4   ar
     8     3    28    1
     9     4     5    1
    10     4    21   ar
    11     5     6   am
    12     5    29    1
    13     6     7    2
    14     6     8    1
    15     8     9    2
    16     8    10   am
    17    10    11    1
    18    10    16    1
    19    11    12    1
    20    11    30    1
    21    11    31    1
    22    12    13    1
    23    12    32    1
    24    12    33    1
    25    13    14    1
    26    13    15    1
    27    13    34    1
    28    14    35    1
    29    14    36    1
    30    14    37    1
    31    15    38    1
    32    15    39    1
    33    15    40    1
    34    16    20    1
    35    16    17    1
    36    16    41    1
    37    17    18    1
    38    17    42    1
    39    17    43    1
    40    18    19    1
    41    18    44    1
    42    18    45    1
    43    19    20    1
    44    19    46    1
    45    19    47    1
    46    20    48    1
    47    20    49    1
    48    21    22   ar
    49    21    50    1
    50    22    23   ar
    51    22    51    1
    52    23    24    1
@<TRIPOS>SUBSTRUCTURE
     1 ZINC000437443367        1 TEMP              0 ****  ****    0 ROOT


##########                                Name:    ZINC000561219098
##########                DOCK_Rotatable_Bonds:                   4
##########                         Heavy_Atoms:                  28
##########                    Molecular_Weight:             423.273
##########                DOCK_Rotatable_Bonds:                   4
##########                       Formal_Charge:          0.00999953
##########                     HBond_Acceptors:                   9
##########                        HBond_Donors:                   1
##########                         Heavy_Atoms:                  28
##########                          Grid_Score:          -28.557163
##########                     Grid_vdw_energy:          -27.520081
##########                      Grid_es_energy:           -1.037082
##########           Internal_energy_repulsive:            9.807392

@<TRIPOS>MOLECULE
ZINC000561219098
 45 48 1 0 0
SMALL
USER_CHARGES


@<TRIPOS>ATOM
      1 C1         -4.7021    2.4894   56.2624 C.3     1  ZINC000561219098    0.0700
      2 N2         -3.2757    2.6547   55.9721 N.pl3   1  ZINC000561219098   -0.4500
      3 C3         -2.2524    2.1103   56.6913 C.2     1  ZINC000561219098   -0.0100
      4 C4         -1.0882    2.4805   56.1255 C.2     1  ZINC000561219098   -0.1700
      5 C5         -1.4014    3.2907   55.0052 C.2     1  ZINC000561219098   -0.1100
      6 C6         -0.4314    3.9252   54.0764 C.2     1  ZINC000561219098    0.1600
      7 N7          0.8727    3.7418   54.0825 N.2     1  ZINC000561219098   -0.2700
      8 N8          1.4389    4.5100   53.0577 N.pl3   1  ZINC000561219098   -0.4700
      9 C9          0.4270    5.1737   52.4212 C.2     1  ZINC000561219098    0.0300
     10 C10         0.5685    6.0947   51.2818 C.2     1  ZINC000561219098    0.5900
     11 O11         0.8611    7.2595   51.4739 O.2     1  ZINC000561219098   -0.5000
     12 N12         0.3738    5.6472   50.0255 N.am    1  ZINC000561219098   -0.6100
     13 C13         0.5096    6.5488   48.8706 C.3     1  ZINC000561219098    0.0500
     14 C14        -0.7422    6.4076   47.9971 C.3     1  ZINC000561219098    0.0500
     15 O15        -0.9566    5.0254   47.7016 O.3     1  ZINC000561219098   -0.3700
     16 C16        -1.2085    4.2135   48.8510 C.3     1  ZINC000561219098    0.1200
     17 H17        -2.0736    4.6017   49.3885 H       1  ZINC000561219098    0.0900
     18 C18        -1.4802    2.7964   48.4164 C.ar    1  ZINC000561219098   -0.0500
     19 C19        -0.8505    2.2841   47.2981 C.ar    1  ZINC000561219098   -0.1000
     20 C20        -1.0996    0.9821   46.8988 C.ar    1  ZINC000561219098    0.1200
     21 F21        -0.4837    0.4809   45.8058 F       1  ZINC000561219098   -0.1200
     22 C22        -1.9804    0.1934   47.6210 C.ar    1  ZINC000561219098   -0.0600
     23 Cl23       -2.2933   -1.4396   47.1218 Cl      1  ZINC000561219098   -0.0300
     24 C24        -2.6099    0.7075   48.7400 C.ar    1  ZINC000561219098   -0.0700
     25 C25        -2.3560    2.0068   49.1407 C.ar    1  ZINC000561219098   -0.0300
     26 Cl26       -3.1460    2.6516   50.5457 Cl      1  ZINC000561219098   -0.0400
     27 C27         0.0250    4.2410   49.7678 C.3     1  ZINC000561219098    0.0900
     28 C28        -0.7505    4.8157   53.0412 C.2     1  ZINC000561219098   -0.1700
     29 C29        -2.7568    3.3723   54.9370 C.2     1  ZINC000561219098    0.0300
     30 H30        -5.0794    1.6096   55.7411 H       1  ZINC000561219098    0.0800
     31 H31        -4.8423    2.3637   57.3360 H       1  ZINC000561219098    0.0900
     32 H32        -5.2461    3.3721   55.9260 H       1  ZINC000561219098    0.0900
     33 H33        -2.3585    1.4873   57.5671 H       1  ZINC000561219098    0.1700
     34 H34        -0.0985    2.2100   56.4629 H       1  ZINC000561219098    0.1400
     35 H35         2.3823    4.5625   52.8386 H       1  ZINC000561219098    0.4400
     36 H36         0.6013    7.5782   49.2172 H       1  ZINC000561219098    0.1000
     37 H37         1.3929    6.2754   48.2932 H       1  ZINC000561219098    0.0900
     38 H38        -1.6056    6.8039   48.5315 H       1  ZINC000561219098    0.0700
     39 H39        -0.6025    6.9610   47.0685 H       1  ZINC000561219098    0.1200
     40 H40        -0.1642    2.8996   46.7354 H       1  ZINC000561219098    0.1600
     41 H41        -3.2970    0.0933   49.3031 H       1  ZINC000561219098    0.1600
     42 H42         0.8571    3.7343   49.2791 H       1  ZINC000561219098    0.0900
     43 H43        -0.2064    3.7432   50.7096 H       1  ZINC000561219098    0.1100
     44 H44        -1.7394    5.1635   52.7813 H       1  ZINC000561219098    0.1600
     45 H45        -3.3230    3.9170   54.1959 H       1  ZINC000561219098    0.1700
@<TRIPOS>BOND
     1     1     2    1
     2     1    30    1
     3     1    31    1
     4     1    32    1
     5     2    29    1
     6     2     3    1
     7     3     4    2
     8     3    33    1
     9     4     5    1
    10     4    34    1
    11     5     6    1
    12     5    29    2
    13     6    28    1
    14     6     7    2
    15     7     8    1
    16     8     9    1
    17     8    35    1
    18     9    10    1
    19     9    28    2
    20    10    11    2
    21    10    12   am
    22    12    27    1
    23    12    13    1
    24    13    14    1
    25    13    36    1
    26    13    37    1
    27    14    15    1
    28    14    38    1
    29    14    39    1
    30    15    16    1
    31    16    17    1
    32    16    18    1
    33    16    27    1
    34    18    25   ar
    35    18    19   ar
    36    19    20   ar
    37    19    40    1
    38    20    21    1
    39    20    22   ar
    40    22    23    1
    41    22    24   ar
    42    24    25   ar
    43    24    41    1
    44    25    26    1
    45    27    42    1
    46    27    43    1
    47    28    44    1
    48    29    45    1
@<TRIPOS>SUBSTRUCTURE
     1 ZINC000561219098        1 TEMP              0 ****  ****    0 ROOT


##########                                Name:    ZINC001436455587
##########                DOCK_Rotatable_Bonds:                   9
##########                         Heavy_Atoms:                  21
##########                    Molecular_Weight:             378.693
##########                DOCK_Rotatable_Bonds:                   9
##########                       Formal_Charge:          -0.0200001
##########                     HBond_Acceptors:                   5
##########                        HBond_Donors:                   1
##########                         Heavy_Atoms:                  21
##########                          Grid_Score:          -28.556503
##########                     Grid_vdw_energy:          -28.510681
##########                      Grid_es_energy:           -0.045822
##########           Internal_energy_repulsive:           14.304465

@<TRIPOS>MOLECULE
ZINC001436455587
 42 42 1 0 0
SMALL
USER_CHARGES


@<TRIPOS>ATOM
      1 C1         -8.2161    1.3568   62.4739 C.3     1  ZINC001436455587   -0.1500
      2 C2         -9.1311    0.5731   63.4169 C.3     1  ZINC001436455587   -0.1300
      3 C3        -10.4575    0.2793   62.7132 C.3     1  ZINC001436455587   -0.1400
      4 C4        -10.2065   -0.6366   61.5136 C.3     1  ZINC001436455587    0.0800
      5 H5         -9.9073   -0.0361   60.6544 H       1  ZINC001436455587    0.0700
      6 C6        -11.4883   -1.4021   61.1792 C.3     1  ZINC001436455587    0.1200
      7 N7        -11.5756   -1.5990   59.7302 N.am    1  ZINC001436455587   -0.7200
      8 C8        -12.6793   -2.1536   59.1908 C.2     1  ZINC001436455587    0.5200
      9 O9        -13.6007   -2.4883   59.9049 O.2     1  ZINC001436455587   -0.5100
     10 C10       -12.7684   -2.3579   57.7003 C.3     1  ZINC001436455587    0.0600
     11 H11       -13.2884   -1.5132   57.2483 H       1  ZINC001436455587    0.1000
     12 C12       -13.5387   -3.6469   57.4075 C.3     1  ZINC001436455587   -0.1800
     13 O13       -11.4520   -2.4549   57.1533 O.3     1  ZINC001436455587   -0.2700
     14 C14       -11.3096   -2.1663   55.8325 C.ar    1  ZINC001436455587    0.1600
     15 C15       -11.3428   -3.1846   54.8919 C.ar    1  ZINC001436455587   -0.2000
     16 C16       -11.1983   -2.8893   53.5497 C.ar    1  ZINC001436455587   -0.0500
     17 C17       -11.0201   -1.5789   53.1437 C.ar    1  ZINC001436455587   -0.0700
     18 Cl18      -10.8383   -1.2111   51.4569 Cl      1  ZINC001436455587   -0.0600
     19 C19       -10.9870   -0.5607   54.0804 C.ar    1  ZINC001436455587   -0.0400
     20 C20       -11.1364   -0.8511   55.4232 C.ar    1  ZINC001436455587   -0.1200
     21 Br21      -11.0910    0.5402   56.7031 Br      1  ZINC001436455587   -0.0100
     22 O22        -9.1670   -1.5641   61.8316 O.3     1  ZINC001436455587   -0.3800
     23 C23        -8.4484   -2.0445   60.6936 C.3     1  ZINC001436455587    0.0200
     24 H24        -8.0285    0.7672   61.5764 H       1  ZINC001436455587    0.0500
     25 H25        -8.6968    2.2954   62.1980 H       1  ZINC001436455587    0.0600
     26 H26        -7.2711    1.5662   62.9751 H       1  ZINC001436455587    0.0600
     27 H27        -8.6505   -0.3656   63.6927 H       1  ZINC001436455587    0.0600
     28 H28        -9.3188    1.1627   64.3143 H       1  ZINC001436455587    0.0700
     29 H29       -11.1371   -0.2122   63.4094 H       1  ZINC001436455587    0.0800
     30 H30       -10.9016    1.2137   62.3703 H       1  ZINC001436455587    0.0800
     31 H31       -11.4730   -2.3716   61.6774 H       1  ZINC001436455587    0.0800
     32 H32       -12.3519   -0.8316   61.5211 H       1  ZINC001436455587    0.0800
     33 H33       -10.8392   -1.3303   59.1589 H       1  ZINC001436455587    0.4000
     34 H34       -13.6032   -3.7947   56.3294 H       1  ZINC001436455587    0.0800
     35 H35       -13.0188   -4.4916   57.8595 H       1  ZINC001436455587    0.0800
     36 H36       -14.5430   -3.5729   57.8247 H       1  ZINC001436455587    0.0800
     37 H37       -11.4812   -4.2079   55.2082 H       1  ZINC001436455587    0.1500
     38 H38       -11.2243   -3.6823   52.8170 H       1  ZINC001436455587    0.1400
     39 H39       -10.8481    0.4617   53.7614 H       1  ZINC001436455587    0.1500
     40 H40        -7.9114   -1.2182   60.2277 H       1  ZINC001436455587    0.0500
     41 H41        -7.7374   -2.8082   61.0087 H       1  ZINC001436455587    0.0900
     42 H42        -9.1483   -2.4732   59.9764 H       1  ZINC001436455587    0.0400
@<TRIPOS>BOND
     1     1     2    1
     2     1    24    1
     3     1    25    1
     4     1    26    1
     5     2     3    1
     6     2    27    1
     7     2    28    1
     8     3     4    1
     9     3    29    1
    10     3    30    1
    11     4     5    1
    12     4     6    1
    13     4    22    1
    14     6     7    1
    15     6    31    1
    16     6    32    1
    17     7     8   am
    18     7    33    1
    19     8     9    2
    20     8    10    1
    21    10    11    1
    22    10    12    1
    23    10    13    1
    24    12    34    1
    25    12    35    1
    26    12    36    1
    27    13    14    1
    28    14    20   ar
    29    14    15   ar
    30    15    16   ar
    31    15    37    1
    32    16    17   ar
    33    16    38    1
    34    17    18    1
    35    17    19   ar
    36    19    20   ar
    37    19    39    1
    38    20    21    1
    39    22    23    1
    40    23    40    1
    41    23    41    1
    42    23    42    1
@<TRIPOS>SUBSTRUCTURE
     1 ZINC001436455587        1 TEMP              0 ****  ****    0 ROOT


##########                                Name:    ZINC000632456679
##########                DOCK_Rotatable_Bonds:                   6
##########                         Heavy_Atoms:                  24
##########                    Molecular_Weight:              374.82
##########                DOCK_Rotatable_Bonds:                   6
##########                       Formal_Charge:          -0.0299999
##########                     HBond_Acceptors:                   9
##########                        HBond_Donors:                   1
##########                         Heavy_Atoms:                  24
##########                          Grid_Score:          -28.535980
##########                     Grid_vdw_energy:          -27.043686
##########                      Grid_es_energy:           -1.492294
##########           Internal_energy_repulsive:           65.274261

@<TRIPOS>MOLECULE
ZINC000632456679
 40 41 1 0 0
SMALL
USER_CHARGES


@<TRIPOS>ATOM
      1 C1         -0.0280    3.7181   54.8424 C.3     1  ZINC000632456679   -0.1600
      2 C2         -1.5504    3.8041   54.7159 C.3     1  ZINC000632456679    0.1900
      3 C3         -2.2017    3.1144   55.9163 C.3     1  ZINC000632456679   -0.2000
      4 C4         -1.9768    5.2730   54.6784 C.3     1  ZINC000632456679   -0.6300
      5 S5         -3.7495    5.3974   55.0425 S.o2    1  ZINC000632456679    2.4100
      6 C6         -4.4456    4.1221   53.9562 C.3     1  ZINC000632456679   -0.6600
      7 O7         -3.9629    5.0079   56.3924 O.2     1  ZINC000632456679   -0.9300
      8 O8         -4.2136    6.6672   54.6051 O.2     1  ZINC000632456679   -0.9300
      9 N9         -1.9760    3.1403   53.4812 N.am    1  ZINC000632456679   -0.7200
     10 C10        -1.5106    3.5684   52.2910 C.2     1  ZINC000632456679    0.6200
     11 O11        -0.7387    4.5065   52.2420 O.2     1  ZINC000632456679   -0.5000
     12 C12        -1.9378    2.8989   51.0478 C.2     1  ZINC000632456679   -0.0900
     13 C13        -1.2028    2.7442   49.9067 C.2     1  ZINC000632456679   -0.1300
     14 C14        -2.0765    2.0398   49.0333 C.2     1  ZINC000632456679    0.0400
     15 C15        -1.7859    1.6044   47.6447 C.ar    1  ZINC000632456679   -0.0500
     16 C16        -1.0493    2.4258   46.7941 C.ar    1  ZINC000632456679   -0.0600
     17 C17        -0.7815    2.0167   45.5034 C.ar    1  ZINC000632456679   -0.1100
     18 C18        -1.2427    0.7934   45.0516 C.ar    1  ZINC000632456679   -0.0700
     19 C19        -1.9750   -0.0285   45.8899 C.ar    1  ZINC000632456679   -0.0800
     20 Cl20       -2.5502   -1.5622   45.3149 Cl      1  ZINC000632456679   -0.0400
     21 C21        -2.2444    0.3683   47.1879 C.ar    1  ZINC000632456679    0.1400
     22 F22        -2.9591   -0.4339   48.0070 F       1  ZINC000632456679   -0.1100
     23 N23        -3.1883    1.8512   49.6990 N.2     1  ZINC000632456679   -0.3200
     24 O24        -3.1277    2.3134   50.8142 O.3     1  ZINC000632456679    0.1400
     25 H25         0.2758    2.6716   54.8691 H       1  ZINC000632456679    0.0900
     26 H26         0.4359    4.2094   53.9872 H       1  ZINC000632456679    0.0600
     27 H27         0.2887    4.2119   55.7610 H       1  ZINC000632456679    0.0700
     28 H28        -1.8850    3.6082   56.8349 H       1  ZINC000632456679    0.0800
     29 H29        -3.2863    3.1757   55.8262 H       1  ZINC000632456679    0.0800
     30 H30        -1.8979    2.0679   55.9430 H       1  ZINC000632456679    0.0900
     31 H31        -1.4126    5.8342   55.4232 H       1  ZINC000632456679    0.1600
     32 H32        -1.7797    5.6834   53.6881 H       1  ZINC000632456679    0.1400
     33 H33        -4.0225    3.1521   54.2172 H       1  ZINC000632456679    0.1300
     34 H34        -5.5282    4.0913   54.0794 H       1  ZINC000632456679    0.1300
     35 H35        -4.2044    4.3567   52.9195 H       1  ZINC000632456679    0.1300
     36 H36        -2.5928    2.3927   53.5203 H       1  ZINC000632456679    0.4200
     37 H37        -0.1944    3.0792   49.7130 H       1  ZINC000632456679    0.1900
     38 H38        -0.6886    3.3816   47.1441 H       1  ZINC000632456679    0.1500
     39 H39        -0.2103    2.6537   44.8442 H       1  ZINC000632456679    0.1500
     40 H40        -1.0307    0.4789   44.0404 H       1  ZINC000632456679    0.1500
@<TRIPOS>BOND
     1     1     2    1
     2     1    25    1
     3     1    26    1
     4     1    27    1
     5     2     3    1
     6     2     4    1
     7     2     9    1
     8     3    28    1
     9     3    29    1
    10     3    30    1
    11     4     5    1
    12     4    31    1
    13     4    32    1
    14     5     6    1
    15     5     7    2
    16     5     8    2
    17     6    33    1
    18     6    34    1
    19     6    35    1
    20     9    10   am
    21     9    36    1
    22    10    11    2
    23    10    12    1
    24    12    24    1
    25    12    13    2
    26    13    14    1
    27    13    37    1
    28    14    15    1
    29    14    23    2
    30    15    21   ar
    31    15    16   ar
    32    16    17   ar
    33    16    38    1
    34    17    18   ar
    35    17    39    1
    36    18    19   ar
    37    18    40    1
    38    19    20    1
    39    19    21   ar
    40    21    22    1
    41    23    24    1
@<TRIPOS>SUBSTRUCTURE
     1 ZINC000632456679        1 TEMP              0 ****  ****    0 ROOT


##########                                Name:    ZINC000894043060
##########                DOCK_Rotatable_Bonds:                  11
##########                         Heavy_Atoms:                  26
##########                    Molecular_Weight:             396.812
##########                DOCK_Rotatable_Bonds:                  11
##########                       Formal_Charge:          -0.0199999
##########                     HBond_Acceptors:                   9
##########                        HBond_Donors:                   2
##########                         Heavy_Atoms:                  26
##########                          Grid_Score:          -28.509811
##########                     Grid_vdw_energy:          -28.199802
##########                      Grid_es_energy:           -0.310009
##########           Internal_energy_repulsive:           13.957881

@<TRIPOS>MOLECULE
ZINC000894043060
 47 47 1 0 0
SMALL
USER_CHARGES


@<TRIPOS>ATOM
      1 C1         -8.2824    1.0321   62.9612 C.3     1  ZINC000894043060   -0.1700
      2 C2         -8.7340   -0.1748   62.1363 C.3     1  ZINC000894043060    0.1000
      3 H3         -7.9032   -0.8721   62.0279 H       1  ZINC000894043060    0.1100
      4 N4         -9.1702    0.2745   60.8119 N.am    1  ZINC000894043060   -0.7300
      5 C5         -9.0332   -0.5382   59.7456 C.2     1  ZINC000894043060    0.5200
      6 O6         -8.5475   -1.6411   59.8822 O.2     1  ZINC000894043060   -0.5200
      7 C7         -9.4836   -0.0766   58.3836 C.3     1  ZINC000894043060   -0.1400
      8 C8        -10.7548   -0.8289   57.9847 C.3     1  ZINC000894043060   -0.0200
      9 C9        -11.9813   -0.0277   58.4261 C.3     1  ZINC000894043060   -0.1400
     10 C10       -12.9618   -0.9458   59.1092 C.2     1  ZINC000894043060    0.5200
     11 O11       -12.6740   -1.4596   60.1695 O.2     1  ZINC000894043060   -0.5200
     12 N12       -14.1586   -1.1959   58.5419 N.am    1  ZINC000894043060   -0.7300
     13 C13       -15.1124   -2.0870   59.2069 C.3     1  ZINC000894043060    0.1000
     14 H14       -14.9944   -2.0045   60.2873 H       1  ZINC000894043060    0.1200
     15 C15       -16.5379   -1.6901   58.8177 C.3     1  ZINC000894043060   -0.1700
     16 C16       -14.8488   -3.5306   58.7739 C.3     1  ZINC000894043060    0.2600
     17 F17       -14.9084   -3.6173   57.3788 F       1  ZINC000894043060   -0.1900
     18 F18       -13.5799   -3.9245   59.2118 F       1  ZINC000894043060   -0.2000
     19 C19       -10.7838   -1.0085   56.4887 C.ar    1  ZINC000894043060   -0.0600
     20 C20       -11.0135   -2.2596   55.9474 C.ar    1  ZINC000894043060   -0.1200
     21 C21       -11.0402   -2.4250   54.5754 C.ar    1  ZINC000894043060   -0.1200
     22 C22       -10.8369   -1.3381   53.7438 C.ar    1  ZINC000894043060   -0.0400
     23 Cl23      -10.8707   -1.5450   52.0205 Cl      1  ZINC000894043060   -0.0800
     24 C24       -10.6070   -0.0862   54.2862 C.ar    1  ZINC000894043060   -0.1100
     25 C25       -10.5862    0.0789   55.6583 C.ar    1  ZINC000894043060   -0.0400
     26 C26        -9.8959   -0.8721   62.8466 C.3     1  ZINC000894043060    0.2600
     27 F27       -10.9857    0.0014   62.9259 F       1  ZINC000894043060   -0.2000
     28 F28       -10.2646   -2.0138   62.1271 F       1  ZINC000894043060   -0.1900
     29 H29        -9.1131    1.7295   63.0695 H       1  ZINC000894043060    0.0600
     30 H30        -7.9578    0.6978   63.9465 H       1  ZINC000894043060    0.0800
     31 H31        -7.4546    1.5289   62.4552 H       1  ZINC000894043060    0.0800
     32 H32        -9.5575    1.1571   60.7025 H       1  ZINC000894043060    0.4000
     33 H33        -9.6885    0.9935   58.4120 H       1  ZINC000894043060    0.1000
     34 H34        -8.6989   -0.2771   57.6541 H       1  ZINC000894043060    0.1000
     35 H35       -10.7657   -1.8058   58.4682 H       1  ZINC000894043060    0.1000
     36 H36       -11.6736    0.7555   59.1188 H       1  ZINC000894043060    0.1000
     37 H37       -12.4535    0.4239   57.5537 H       1  ZINC000894043060    0.1000
     38 H38       -14.3883   -0.7859   57.6934 H       1  ZINC000894043060    0.4000
     39 H39       -16.6558   -1.7727   57.7372 H       1  ZINC000894043060    0.0700
     40 H40       -17.2476   -2.3532   59.3124 H       1  ZINC000894043060    0.0800
     41 H41       -16.7257   -0.6617   59.1261 H       1  ZINC000894043060    0.0700
     42 H42       -15.6033   -4.1846   59.2110 H       1  ZINC000894043060    0.1200
     43 H43       -11.1719   -3.1080   56.5966 H       1  ZINC000894043060    0.1200
     44 H44       -11.2193   -3.4025   54.1526 H       1  ZINC000894043060    0.1300
     45 H45       -10.4479    0.7625   53.6375 H       1  ZINC000894043060    0.1300
     46 H46       -10.4071    1.0561   56.0818 H       1  ZINC000894043060    0.1300
     47 H47        -9.5871   -1.1600   63.8515 H       1  ZINC000894043060    0.1100
@<TRIPOS>BOND
     1     1     2    1
     2     1    29    1
     3     1    30    1
     4     1    31    1
     5     2     3    1
     6     2     4    1
     7     2    26    1
     8     4     5   am
     9     4    32    1
    10     5     6    2
    11     5     7    1
    12     7     8    1
    13     7    33    1
    14     7    34    1
    15     8     9    1
    16     8    19    1
    17     8    35    1
    18     9    10    1
    19     9    36    1
    20     9    37    1
    21    10    11    2
    22    10    12   am
    23    12    13    1
    24    12    38    1
    25    13    14    1
    26    13    15    1
    27    13    16    1
    28    15    39    1
    29    15    40    1
    30    15    41    1
    31    16    17    1
    32    16    18    1
    33    16    42    1
    34    19    25   ar
    35    19    20   ar
    36    20    21   ar
    37    20    43    1
    38    21    22   ar
    39    21    44    1
    40    22    23    1
    41    22    24   ar
    42    24    25   ar
    43    24    45    1
    44    25    46    1
    45    26    27    1
    46    26    28    1
    47    26    47    1
@<TRIPOS>SUBSTRUCTURE
     1 ZINC000894043060        1 TEMP              0 ****  ****    0 ROOT


##########                                Name:    ZINC000671418508
##########                DOCK_Rotatable_Bonds:                   9
##########                         Heavy_Atoms:                  28
##########                    Molecular_Weight:             405.884
##########                DOCK_Rotatable_Bonds:                   9
##########                       Formal_Charge:         -1.3411e-07
##########                     HBond_Acceptors:                   9
##########                        HBond_Donors:                   2
##########                         Heavy_Atoms:                  28
##########                          Grid_Score:          -28.503607
##########                     Grid_vdw_energy:          -28.450584
##########                      Grid_es_energy:           -0.053023
##########           Internal_energy_repulsive:           17.054010

@<TRIPOS>MOLECULE
ZINC000671418508
 52 54 1 0 0
SMALL
USER_CHARGES


@<TRIPOS>ATOM
      1 C1         -7.9929    1.3242   59.1910 C.3     1  ZINC000671418508    0.1000
      2 N2         -8.9893    0.6798   60.0503 N.pl3   1  ZINC000671418508   -0.3700
      3 C3         -9.5245   -0.5450   59.8648 C.2     1  ZINC000671418508    0.0800
      4 C4        -10.4002   -0.7692   60.8718 C.2     1  ZINC000671418508   -0.2700
      5 C5        -11.2285   -2.0132   61.0659 C.3     1  ZINC000671418508    0.2000
      6 N6        -11.3465   -2.7251   59.7910 N.am    1  ZINC000671418508   -0.6900
      7 C7        -12.3132   -2.3843   58.9158 C.2     1  ZINC000671418508    0.5100
      8 O8        -13.0866   -1.4886   59.1845 O.2     1  ZINC000671418508   -0.5100
      9 C9        -12.4324   -3.1093   57.6144 C.2     1  ZINC000671418508    0.5100
     10 O10       -13.0771   -4.1352   57.5482 O.2     1  ZINC000671418508   -0.5200
     11 N11       -11.8237   -2.6237   56.5142 N.am    1  ZINC000671418508   -0.5800
     12 C12       -11.9333   -3.3182   55.2223 C.3     1  ZINC000671418508    0.0800
     13 C13       -12.3756   -2.3051   54.1611 C.3     1  ZINC000671418508    0.0400
     14 N14       -11.4597   -1.1566   54.1732 N.3     1  ZINC000671418508   -0.5200
     15 C15       -11.7450   -0.2440   53.0581 C.3     1  ZINC000671418508    0.1300
     16 H16       -12.7989    0.0335   53.0762 H       1  ZINC000671418508    0.0600
     17 C17       -11.4237   -0.9404   51.7341 C.3     1  ZINC000671418508    0.0900
     18 O18       -12.6379   -1.3685   51.1142 O.3     1  ZINC000671418508   -0.5500
     19 C19       -10.8971    0.9944   53.1930 C.ar    1  ZINC000671418508   -0.0800
     20 C20       -11.4939    2.2171   53.4379 C.ar    1  ZINC000671418508   -0.0600
     21 C21       -10.7166    3.3534   53.5617 C.ar    1  ZINC000671418508   -0.1200
     22 C22        -9.3411    3.2669   53.4406 C.ar    1  ZINC000671418508   -0.0300
     23 Cl23       -8.3642    4.6933   53.5965 Cl      1  ZINC000671418508   -0.0700
     24 C24        -8.7444    2.0429   53.1955 C.ar    1  ZINC000671418508   -0.1200
     25 C25        -9.5223    0.9065   53.0775 C.ar    1  ZINC000671418508   -0.1100
     26 C26       -11.5103   -0.4484   55.4593 C.3     1  ZINC000671418508    0.0400
     27 C27       -11.0375   -1.3821   56.5723 C.3     1  ZINC000671418508    0.1100
     28 C28       -10.4001    0.3570   61.7010 C.2     1  ZINC000671418508    0.0700
     29 N29        -9.5502    1.2239   61.2129 N.2     1  ZINC000671418508   -0.2900
     30 H30        -6.9924    1.0655   59.5377 H       1  ZINC000671418508    0.0800
     31 H31        -8.1220    0.9808   58.1645 H       1  ZINC000671418508    0.0900
     32 H32        -8.1231    2.4056   59.2315 H       1  ZINC000671418508    0.0900
     33 H33        -9.2954   -1.2244   59.0571 H       1  ZINC000671418508    0.1800
     34 H34       -10.7469   -2.6595   61.7998 H       1  ZINC000671418508    0.0800
     35 H35       -12.2213   -1.7369   61.4209 H       1  ZINC000671418508    0.0800
     36 H36       -10.7290   -3.4419   59.5767 H       1  ZINC000671418508    0.4100
     37 H37       -10.9647   -3.7363   54.9482 H       1  ZINC000671418508    0.0800
     38 H38       -12.6719   -4.1163   55.2971 H       1  ZINC000671418508    0.1400
     39 H39       -12.3556   -2.7759   53.1783 H       1  ZINC000671418508    0.0900
     40 H40       -13.3876   -1.9657   54.3817 H       1  ZINC000671418508    0.0400
     41 H41       -10.9045   -0.2450   51.0746 H       1  ZINC000671418508    0.0500
     42 H42       -10.7878   -1.8052   51.9235 H       1  ZINC000671418508    0.0500
     43 H43       -13.2515   -0.6489   50.9126 H       1  ZINC000671418508    0.3800
     44 H44       -12.5676    2.2847   53.5321 H       1  ZINC000671418508    0.1400
     45 H45       -11.1829    4.3085   53.7527 H       1  ZINC000671418508    0.1300
     46 H46        -7.6708    1.9748   53.1004 H       1  ZINC000671418508    0.1300
     47 H47        -9.0566   -0.0491   52.8865 H       1  ZINC000671418508    0.1300
     48 H48       -10.8627    0.4275   55.4178 H       1  ZINC000671418508    0.0900
     49 H49       -12.5343   -0.1349   55.6618 H       1  ZINC000671418508    0.0400
     50 H50       -11.1812   -0.9007   57.5397 H       1  ZINC000671418508    0.1000
     51 H51        -9.9826   -1.6167   56.4301 H       1  ZINC000671418508    0.0800
     52 H52       -10.9950    0.4868   62.5930 H       1  ZINC000671418508    0.1900
@<TRIPOS>BOND
     1     1     2    1
     2     1    30    1
     3     1    31    1
     4     1    32    1
     5     2    29    1
     6     2     3    1
     7     3     4    2
     8     3    33    1
     9     4     5    1
    10     4    28    1
    11     5     6    1
    12     5    34    1
    13     5    35    1
    14     6     7   am
    15     6    36    1
    16     7     8    2
    17     7     9    1
    18     9    10    2
    19     9    11   am
    20    11    27    1
    21    11    12    1
    22    12    13    1
    23    12    37    1
    24    12    38    1
    25    13    14    1
    26    13    39    1
    27    13    40    1
    28    14    15    1
    29    14    26    1
    30    15    16    1
    31    15    17    1
    32    15    19    1
    33    17    18    1
    34    17    41    1
    35    17    42    1
    36    18    43    1
    37    19    25   ar
    38    19    20   ar
    39    20    21   ar
    40    20    44    1
    41    21    22   ar
    42    21    45    1
    43    22    23    1
    44    22    24   ar
    45    24    25   ar
    46    24    46    1
    47    25    47    1
    48    26    27    1
    49    26    48    1
    50    26    49    1
    51    27    50    1
    52    27    51    1
    53    28    29    2
    54    28    52    1
@<TRIPOS>SUBSTRUCTURE
     1 ZINC000671418508        1 TEMP              0 ****  ****    0 ROOT


##########                                Name:    ZINC000560467340
##########                DOCK_Rotatable_Bonds:                   7
##########                         Heavy_Atoms:                  24
##########                    Molecular_Weight:             369.481
##########                DOCK_Rotatable_Bonds:                   7
##########                       Formal_Charge:          -0.0199997
##########                     HBond_Acceptors:                   7
##########                        HBond_Donors:                   2
##########                         Heavy_Atoms:                  24
##########                          Grid_Score:          -28.482033
##########                     Grid_vdw_energy:          -27.291220
##########                      Grid_es_energy:           -1.190813
##########           Internal_energy_repulsive:           21.085751

@<TRIPOS>MOLECULE
ZINC000560467340
 44 46 1 0 0
SMALL
USER_CHARGES


@<TRIPOS>ATOM
      1 O1         -0.9696    3.8732   51.2461 O.2     1  ZINC000560467340   -0.9600
      2 S2         -1.2169    4.2797   49.9071 S.o2    1  ZINC000560467340    2.7100
      3 O3         -0.2525    4.9503   49.1076 O.2     1  ZINC000560467340   -0.9500
      4 N4         -1.6455    2.9134   49.0753 N.am    1  ZINC000560467340   -1.0900
      5 C5         -0.6649    1.8453   48.8662 C.3     1  ZINC000560467340    0.1400
      6 C6         -1.1640    0.9022   47.7696 C.3     1  ZINC000560467340   -0.0500
      7 C7         -1.3370    1.6697   46.4575 C.3     1  ZINC000560467340   -0.0700
      8 C8          0.0067    1.8473   45.7985 C.ar    1  ZINC000560467340   -0.0900
      9 C9          0.3658    1.0418   44.7340 C.ar    1  ZINC000560467340   -0.0900
     10 C10         1.5977    1.2037   44.1290 C.ar    1  ZINC000560467340   -0.1500
     11 C11         2.4722    2.1736   44.5892 C.ar    1  ZINC000560467340    0.1000
     12 F12         3.6765    2.3331   43.9982 F       1  ZINC000560467340   -0.1400
     13 C13         2.1113    2.9800   45.6552 C.ar    1  ZINC000560467340   -0.1500
     14 C14         0.8769    2.8194   46.2556 C.ar    1  ZINC000560467340   -0.0900
     15 C15        -2.5041    0.2645   48.1907 C.3     1  ZINC000560467340   -0.1300
     16 C16        -2.4226   -1.1839   47.6481 C.3     1  ZINC000560467340   -0.1200
     17 C17        -0.9379   -1.5552   47.8864 C.3     1  ZINC000560467340   -0.1600
     18 C18        -0.1682   -0.2548   47.5762 C.3     1  ZINC000560467340    0.1100
     19 H19         0.1910   -0.2701   46.5472 H       1  ZINC000560467340    0.0600
     20 O20         0.9321   -0.1107   48.4765 O.3     1  ZINC000560467340   -0.5500
     21 C21        -2.6344    5.3252   49.9585 C.2     1  ZINC000560467340   -0.6900
     22 C22        -3.6169    5.1587   50.8451 C.2     1  ZINC000560467340   -0.1000
     23 S23        -4.8539    6.3831   50.5918 S.3     1  ZINC000560467340    0.1500
     24 C24        -3.9400    7.0728   49.2565 C.2     1  ZINC000560467340   -0.2200
     25 C25        -2.8099    6.3851   49.0856 C.2     1  ZINC000560467340   -0.0700
     26 H26        -2.5459    2.8202   48.7267 H       1  ZINC000560467340    0.4200
     27 H27         0.2879    2.2807   48.5650 H       1  ZINC000560467340    0.0600
     28 H28        -0.5325    1.2871   49.7930 H       1  ZINC000560467340    0.0800
     29 H29        -1.9962    1.1104   45.7936 H       1  ZINC000560467340    0.0800
     30 H30        -1.7727    2.6474   46.6632 H       1  ZINC000560467340    0.0800
     31 H31        -0.3165    0.2854   44.3753 H       1  ZINC000560467340    0.1300
     32 H32         1.8783    0.5739   43.2978 H       1  ZINC000560467340    0.1400
     33 H33         2.7928    3.7366   46.0153 H       1  ZINC000560467340    0.1400
     34 H34         0.5950    3.4486   47.0869 H       1  ZINC000560467340    0.1300
     35 H35        -2.6000    0.2602   49.2765 H       1  ZINC000560467340    0.0700
     36 H36        -3.3395    0.7962   47.7351 H       1  ZINC000560467340    0.0800
     37 H37        -3.0814   -1.8450   48.2111 H       1  ZINC000560467340    0.0700
     38 H38        -2.6620   -1.2122   46.5851 H       1  ZINC000560467340    0.0700
     39 H39        -0.7810   -1.8534   48.9230 H       1  ZINC000560467340    0.0800
     40 H40        -0.6303   -2.3516   47.2086 H       1  ZINC000560467340    0.0700
     41 H41         0.6760   -0.0752   49.4082 H       1  ZINC000560467340    0.3800
     42 H42        -3.6484    4.3894   51.6025 H       1  ZINC000560467340    0.1800
     43 H43        -4.2450    7.9255   48.6681 H       1  ZINC000560467340    0.1700
     44 H44        -2.0901    6.6316   48.3191 H       1  ZINC000560467340    0.1500
@<TRIPOS>BOND
     1     1     2    2
     2     2     3    2
     3     2     4   am
     4     2    21    1
     5     4     5    1
     6     4    26    1
     7     5     6    1
     8     5    27    1
     9     5    28    1
    10     6    18    1
    11     6     7    1
    12     6    15    1
    13     7     8    1
    14     7    29    1
    15     7    30    1
    16     8    14   ar
    17     8     9   ar
    18     9    10   ar
    19     9    31    1
    20    10    11   ar
    21    10    32    1
    22    11    12    1
    23    11    13   ar
    24    13    14   ar
    25    13    33    1
    26    14    34    1
    27    15    16    1
    28    15    35    1
    29    15    36    1
    30    16    17    1
    31    16    37    1
    32    16    38    1
    33    17    18    1
    34    17    39    1
    35    17    40    1
    36    18    19    1
    37    18    20    1
    38    20    41    1
    39    21    25    1
    40    21    22    2
    41    22    23    1
    42    22    42    1
    43    23    24    1
    44    24    25    2
    45    24    43    1
    46    25    44    1
@<TRIPOS>SUBSTRUCTURE
     1 ZINC000560467340        1 TEMP              0 ****  ****    0 ROOT


##########                                Name:    ZINC000416583757
##########                DOCK_Rotatable_Bonds:                   7
##########                         Heavy_Atoms:                  20
##########                    Molecular_Weight:             380.693
##########                DOCK_Rotatable_Bonds:                   7
##########                       Formal_Charge:         1.04308e-07
##########                     HBond_Acceptors:                   7
##########                        HBond_Donors:                   1
##########                         Heavy_Atoms:                  20
##########                          Grid_Score:          -28.459867
##########                     Grid_vdw_energy:          -26.121716
##########                      Grid_es_energy:           -2.338152
##########           Internal_energy_repulsive:            9.259324

@<TRIPOS>MOLECULE
ZINC000416583757
 35 35 1 0 0
SMALL
USER_CHARGES


@<TRIPOS>ATOM
      1 C1         -5.2603    4.5432   53.6310 C.3     1  ZINC000416583757   -0.1500
      2 C2         -4.3195    4.9932   52.5117 C.3     1  ZINC000416583757   -0.0200
      3 H3         -4.5663    6.0135   52.2179 H       1  ZINC000416583757    0.1200
      4 C4         -2.9283    4.9433   52.9903 C.1     1  ZINC000416583757    0.2100
      5 N5         -1.8548    4.9046   53.3596 N.1     1  ZINC000416583757   -0.4200
      6 C6         -4.4782    4.0632   51.3072 C.3     1  ZINC000416583757    0.1300
      7 N7         -3.2874    4.1557   50.4588 N.am    1  ZINC000416583757   -1.0100
      8 C8         -2.9438    5.4259   49.8147 C.3     1  ZINC000416583757    0.0800
      9 S9         -2.3300    2.8245   50.2275 S.o2    1  ZINC000416583757    2.7800
     10 O10        -1.7426    2.5290   51.4874 O.2     1  ZINC000416583757   -0.9700
     11 O11        -3.1117    1.8901   49.4962 O.2     1  ZINC000416583757   -0.9700
     12 N12        -1.0900    3.2799   49.2288 N.am    1  ZINC000416583757   -1.1300
     13 C13        -0.0680    2.3055   48.8387 C.3     1  ZINC000416583757    0.1600
     14 C14        -0.3799    1.7736   47.4637 C.ar    1  ZINC000416583757   -0.0800
     15 C15        -1.1596    0.6414   47.3215 C.ar    1  ZINC000416583757   -0.0800
     16 C16        -1.4466    0.1529   46.0590 C.ar    1  ZINC000416583757   -0.0300
     17 Cl17       -2.4265   -1.2690   45.8804 Cl      1  ZINC000416583757   -0.0500
     18 C18        -0.9531    0.7980   44.9396 C.ar    1  ZINC000416583757   -0.0700
     19 C19        -0.1729    1.9312   45.0826 C.ar    1  ZINC000416583757   -0.0800
     20 Br20        0.5023    2.8138   43.5526 Br      1  ZINC000416583757   -0.0300
     21 C21         0.1091    2.4216   46.3448 C.ar    1  ZINC000416583757   -0.0700
     22 H22        -5.0617    5.1273   54.5295 H       1  ZINC000416583757    0.0700
     23 H23        -6.2939    4.6950   53.3200 H       1  ZINC000416583757    0.0800
     24 H24        -5.0957    3.4863   53.8411 H       1  ZINC000416583757    0.0700
     25 H25        -4.5984    3.0368   51.6540 H       1  ZINC000416583757    0.0900
     26 H26        -5.3568    4.3582   50.7337 H       1  ZINC000416583757    0.1000
     27 H27        -2.2956    6.0037   50.4736 H       1  ZINC000416583757    0.0700
     28 H28        -2.4254    5.2290   48.8763 H       1  ZINC000416583757    0.0800
     29 H29        -3.8548    5.9902   49.6150 H       1  ZINC000416583757    0.0800
     30 H30        -1.0404    4.1918   48.9021 H       1  ZINC000416583757    0.4200
     31 H31         0.9092    2.7882   48.8285 H       1  ZINC000416583757    0.0800
     32 H32        -0.0591    1.4824   49.5533 H       1  ZINC000416583757    0.1000
     33 H33        -1.5445    0.1376   48.1958 H       1  ZINC000416583757    0.1500
     34 H34        -1.1766    0.4170   43.9540 H       1  ZINC000416583757    0.1500
     35 H35         0.7184    3.3064   46.4565 H       1  ZINC000416583757    0.1400
@<TRIPOS>BOND
     1     1     2    1
     2     1    22    1
     3     1    23    1
     4     1    24    1
     5     2     3    1
     6     2     4    1
     7     2     6    1
     8     4     5    3
     9     6     7    1
    10     6    25    1
    11     6    26    1
    12     7     8    1
    13     7     9   am
    14     8    27    1
    15     8    28    1
    16     8    29    1
    17     9    10    2
    18     9    11    2
    19     9    12   am
    20    12    13    1
    21    12    30    1
    22    13    14    1
    23    13    31    1
    24    13    32    1
    25    14    21   ar
    26    14    15   ar
    27    15    16   ar
    28    15    33    1
    29    16    17    1
    30    16    18   ar
    31    18    19   ar
    32    18    34    1
    33    19    20    1
    34    19    21   ar
    35    21    35    1
@<TRIPOS>SUBSTRUCTURE
     1 ZINC000416583757        1 TEMP              0 ****  ****    0 ROOT


##########                                Name:    ZINC001009116151
##########                DOCK_Rotatable_Bonds:                   6
##########                         Heavy_Atoms:                  25
##########                    Molecular_Weight:             342.481
##########                DOCK_Rotatable_Bonds:                   6
##########                       Formal_Charge:           0.0600006
##########                     HBond_Acceptors:                   4
##########                        HBond_Donors:                   1
##########                         Heavy_Atoms:                  25
##########                          Grid_Score:          -28.451275
##########                     Grid_vdw_energy:          -27.495953
##########                      Grid_es_energy:           -0.955323
##########           Internal_energy_repulsive:           13.592583

@<TRIPOS>MOLECULE
ZINC001009116151
 55 59 1 0 0
SMALL
USER_CHARGES


@<TRIPOS>ATOM
      1 O1        -12.5310   -3.7881   56.2402 O.2     1  ZINC001009116151   -0.5400
      2 C2        -12.4923   -2.5933   56.4454 C.2     1  ZINC001009116151    0.5200
      3 N3        -12.8117   -2.1078   57.6614 N.am    1  ZINC001009116151   -0.7300
      4 C4        -13.2116   -3.0226   58.7336 C.3     1  ZINC001009116151    0.1500
      5 C5        -12.8619   -2.4043   60.0886 C.3     1  ZINC001009116151   -0.1200
      6 H6        -13.5305   -2.6635   60.9096 H       1  ZINC001009116151    0.1100
      7 C7        -12.2587   -0.9983   60.0876 C.3     1  ZINC001009116151   -0.1700
      8 H8        -12.1594   -0.4569   59.1468 H       1  ZINC001009116151    0.1200
      9 C9        -12.3480   -0.1671   61.3856 C.3     1  ZINC001009116151    0.1300
     10 N10       -11.1481   -0.5569   62.1623 N.am    1  ZINC001009116151   -0.6200
     11 C11       -10.3480    0.2369   62.9014 C.2     1  ZINC001009116151    0.5500
     12 O12       -10.5815    1.4240   62.9853 O.2     1  ZINC001009116151   -0.5300
     13 C13        -9.1630   -0.3509   63.6236 C.3     1  ZINC001009116151   -0.1200
     14 C14        -7.8499   -0.0678   62.8578 C.3     1  ZINC001009116151   -0.0900
     15 C15        -7.3142    1.2051   63.4711 C.2     1  ZINC001009116151   -0.1800
     16 C16        -7.8892    1.4531   64.6163 C.2     1  ZINC001009116151   -0.1500
     17 C17        -8.9042    0.3870   64.9577 C.3     1  ZINC001009116151   -0.0900
     18 C18       -11.0274   -2.0169   61.9423 C.3     1  ZINC001009116151    0.1200
     19 C19       -11.3792   -2.2202   60.4181 C.3     1  ZINC001009116151   -0.1600
     20 H20       -10.5906   -2.5896   59.7626 H       1  ZINC001009116151    0.1300
     21 C21       -12.0810   -1.6522   55.3426 C.3     1  ZINC001009116151   -0.0700
     22 C22       -11.0473   -2.3374   54.4465 C.3     1  ZINC001009116151   -0.1100
     23 C23       -10.6297   -1.3820   53.3270 C.3     1  ZINC001009116151   -0.1100
     24 C24       -11.3850   -0.0598   53.4766 C.3     1  ZINC001009116151   -0.0900
     25 C25       -12.8902   -0.3197   53.3903 C.3     1  ZINC001009116151   -0.1100
     26 C26       -13.3078   -1.2752   54.5098 C.3     1  ZINC001009116151   -0.0900
     27 C27       -11.0526    0.5668   54.8322 C.3     1  ZINC001009116151   -0.1100
     28 C28       -11.4702   -0.3887   55.9519 C.3     1  ZINC001009116151   -0.1000
     29 H29       -12.7770   -1.1526   57.8268 H       1  ZINC001009116151    0.4000
     30 H30       -14.2862   -3.1971   58.6803 H       1  ZINC001009116151    0.0800
     31 H31       -12.6837   -3.9694   58.6190 H       1  ZINC001009116151    0.0700
     32 H32       -12.3233    0.8984   61.1572 H       1  ZINC001009116151    0.0900
     33 H33       -13.2549   -0.4178   61.9359 H       1  ZINC001009116151    0.0800
     34 H34        -9.2984   -1.4199   63.7877 H       1  ZINC001009116151    0.1100
     35 H35        -7.1430   -0.8850   63.0011 H       1  ZINC001009116151    0.0900
     36 H36        -8.0530    0.0782   61.7968 H       1  ZINC001009116151    0.0800
     37 H37        -6.5551    1.8276   63.0212 H       1  ZINC001009116151    0.1300
     38 H38        -7.6683    2.3078   65.2384 H       1  ZINC001009116151    0.1300
     39 H39        -9.8242    0.8422   65.3245 H       1  ZINC001009116151    0.0900
     40 H40        -8.4979   -0.3006   65.6994 H       1  ZINC001009116151    0.0900
     41 H41       -10.0064   -2.3470   62.1339 H       1  ZINC001009116151    0.0900
     42 H42       -11.7281   -2.5565   62.5794 H       1  ZINC001009116151    0.0800
     43 H43       -10.1732   -2.6059   55.0399 H       1  ZINC001009116151    0.0700
     44 H44       -11.4824   -3.2376   54.0126 H       1  ZINC001009116151    0.0700
     45 H45        -9.5572   -1.1967   53.3885 H       1  ZINC001009116151    0.0700
     46 H46       -10.8664   -1.8283   52.3612 H       1  ZINC001009116151    0.0700
     47 H47       -11.0874    0.6209   52.6789 H       1  ZINC001009116151    0.0700
     48 H48       -13.4283    0.6222   53.4968 H       1  ZINC001009116151    0.0700
     49 H49       -13.1270   -0.7662   52.4244 H       1  ZINC001009116151    0.0700
     50 H50       -13.7430   -2.1754   54.0758 H       1  ZINC001009116151    0.0700
     51 H51       -14.0443   -0.7871   55.1482 H       1  ZINC001009116151    0.0700
     52 H52        -9.9802    0.7520   54.8938 H       1  ZINC001009116151    0.0700
     53 H53       -11.5907    1.5087   54.9389 H       1  ZINC001009116151    0.0700
     54 H54       -12.2066    0.0995   56.5902 H       1  ZINC001009116151    0.0700
     55 H55       -10.5962   -0.6572   56.5452 H       1  ZINC001009116151    0.0700
@<TRIPOS>BOND
     1     1     2    2
     2     2     3   am
     3     2    21    1
     4     3     4    1
     5     3    29    1
     6     4     5    1
     7     4    30    1
     8     4    31    1
     9     5     6    1
    10     5    19    1
    11     5     7    1
    12     7     8    1
    13     7    19    1
    14     7     9    1
    15     9    10    1
    16     9    32    1
    17     9    33    1
    18    10    11   am
    19    10    18    1
    20    11    12    2
    21    11    13    1
    22    13    17    1
    23    13    14    1
    24    13    34    1
    25    14    15    1
    26    14    35    1
    27    14    36    1
    28    15    16    2
    29    15    37    1
    30    16    17    1
    31    16    38    1
    32    17    39    1
    33    17    40    1
    34    18    19    1
    35    18    41    1
    36    18    42    1
    37    19    20    1
    38    21    26    1
    39    21    28    1
    40    21    22    1
    41    22    23    1
    42    22    43    1
    43    22    44    1
    44    23    24    1
    45    23    45    1
    46    23    46    1
    47    24    25    1
    48    24    27    1
    49    24    47    1
    50    25    26    1
    51    25    48    1
    52    25    49    1
    53    26    50    1
    54    26    51    1
    55    27    28    1
    56    27    52    1
    57    27    53    1
    58    28    54    1
    59    28    55    1
@<TRIPOS>SUBSTRUCTURE
     1 ZINC001009116151        1 TEMP              0 ****  ****    0 ROOT


##########                                Name:    ZINC000836820897
##########                DOCK_Rotatable_Bonds:                   5
##########                         Heavy_Atoms:                  22
##########                    Molecular_Weight:             330.355
##########                DOCK_Rotatable_Bonds:                   5
##########                       Formal_Charge:          -0.0200003
##########                     HBond_Acceptors:                   8
##########                        HBond_Donors:                   1
##########                         Heavy_Atoms:                  22
##########                          Grid_Score:          -28.430819
##########                     Grid_vdw_energy:          -27.489594
##########                      Grid_es_energy:           -0.941225
##########           Internal_energy_repulsive:            6.487580

@<TRIPOS>MOLECULE
ZINC000836820897
 38 40 1 0 0
SMALL
USER_CHARGES


@<TRIPOS>ATOM
      1 O1          0.6501    2.4490   43.1406 O.2     1  ZINC000836820897   -0.5200
      2 C2          0.7510    2.7601   44.3115 C.2     1  ZINC000836820897    0.5800
      3 C3          0.6517    1.7259   45.3617 C.ar    1  ZINC000836820897   -0.1600
      4 C4          1.8000    1.0705   45.8104 C.ar    1  ZINC000836820897   -0.0100
      5 C5          1.7017    0.1065   46.7911 C.ar    1  ZINC000836820897   -0.1700
      6 C6          0.4656   -0.2125   47.3315 C.ar    1  ZINC000836820897    0.2200
      7 F7          0.3748   -1.1579   48.2923 F       1  ZINC000836820897   -0.1100
      8 C8         -0.6780    0.4358   46.8898 C.ar    1  ZINC000836820897   -0.7200
      9 S9         -2.2450    0.0249   47.5830 S.o2    1  ZINC000836820897    2.7000
     10 O10        -3.2251    0.5724   46.7119 O.2     1  ZINC000836820897   -0.9400
     11 O11        -2.1864   -1.3548   47.9177 O.2     1  ZINC000836820897   -0.9400
     12 N12        -2.3790    0.8480   49.0138 N.am    1  ZINC000836820897   -1.0800
     13 C13        -2.3202    2.3117   49.0251 C.3     1  ZINC000836820897    0.0700
     14 C14        -3.2546    3.0488   49.9867 C.3     1  ZINC000836820897   -0.1800
     15 C15        -1.7536    2.9863   50.2760 C.3     1  ZINC000836820897   -0.1900
     16 C16        -0.5905    1.4044   45.9134 C.ar    1  ZINC000836820897    0.0600
     17 N17         0.9591    4.0477   44.6512 N.am    1  ZINC000836820897   -0.6200
     18 C18         1.0714    5.1740   43.7130 C.3     1  ZINC000836820897    0.0900
     19 C19         1.2778    6.4517   44.5536 C.3     1  ZINC000836820897   -0.1600
     20 C20         0.7049    6.0524   45.9392 C.3     1  ZINC000836820897    0.0800
     21 H21        -0.3791    6.1642   45.9607 H       1  ZINC000836820897    0.1100
     22 F22         1.3034    6.7956   46.9623 F       1  ZINC000836820897   -0.1900
     23 C23         1.1055    4.5608   46.0255 C.3     1  ZINC000836820897    0.0800
     24 H24         2.7635    1.3180   45.3898 H       1  ZINC000836820897    0.1500
     25 H25         2.5893   -0.4013   47.1386 H       1  ZINC000836820897    0.1600
     26 H26        -2.4964    0.3608   49.8444 H       1  ZINC000836820897    0.4200
     27 H27        -2.1149    2.7814   48.0632 H       1  ZINC000836820897    0.1400
     28 H28        -3.6643    4.0037   49.6573 H       1  ZINC000836820897    0.1100
     29 H29        -3.9131    2.4446   50.6108 H       1  ZINC000836820897    0.1000
     30 H30        -1.4244    2.3410   51.0905 H       1  ZINC000836820897    0.1000
     31 H31        -1.1757    3.9000   50.1370 H       1  ZINC000836820897    0.1000
     32 H32        -1.4817    1.9089   45.5703 H       1  ZINC000836820897    0.1600
     33 H33         1.9253    5.0228   43.0527 H       1  ZINC000836820897    0.0800
     34 H34         0.1569    5.2601   43.1260 H       1  ZINC000836820897    0.0800
     35 H35         2.3372    6.6960   44.6302 H       1  ZINC000836820897    0.0900
     36 H36         0.7181    7.2861   44.1308 H       1  ZINC000836820897    0.1000
     37 H37         0.4408    4.0282   46.7057 H       1  ZINC000836820897    0.1000
     38 H38         2.1408    4.4644   46.3525 H       1  ZINC000836820897    0.0900
@<TRIPOS>BOND
     1     1     2    2
     2     2     3    1
     3     2    17   am
     4     3    16   ar
     5     3     4   ar
     6     4     5   ar
     7     4    24    1
     8     5     6   ar
     9     5    25    1
    10     6     7    1
    11     6     8   ar
    12     8     9    1
    13     8    16   ar
    14     9    10    2
    15     9    11    2
    16     9    12   am
    17    12    13    1
    18    12    26    1
    19    13    15    1
    20    13    14    1
    21    13    27    1
    22    14    15    1
    23    14    28    1
    24    14    29    1
    25    15    30    1
    26    15    31    1
    27    16    32    1
    28    17    23    1
    29    17    18    1
    30    18    19    1
    31    18    33    1
    32    18    34    1
    33    19    20    1
    34    19    35    1
    35    19    36    1
    36    20    21    1
    37    20    22    1
    38    20    23    1
    39    23    37    1
    40    23    38    1
@<TRIPOS>SUBSTRUCTURE
     1 ZINC000836820897        1 TEMP              0 ****  ****    0 ROOT


##########                                Name:    ZINC001289445798
##########                DOCK_Rotatable_Bonds:                  10
##########                         Heavy_Atoms:                  25
##########                    Molecular_Weight:             352.434
##########                DOCK_Rotatable_Bonds:                  10
##########                       Formal_Charge:          0.00999932
##########                     HBond_Acceptors:                   8
##########                        HBond_Donors:                   2
##########                         Heavy_Atoms:                  25
##########                          Grid_Score:          -28.423557
##########                     Grid_vdw_energy:          -27.355925
##########                      Grid_es_energy:           -1.067633
##########           Internal_energy_repulsive:           29.440178

@<TRIPOS>MOLECULE
ZINC001289445798
 53 54 1 0 0
SMALL
USER_CHARGES


@<TRIPOS>ATOM
      1 C1         -7.6918    1.1120   58.8465 C.3     1  ZINC001289445798   -0.1500
      2 C2         -9.0665    0.6097   59.2921 C.3     1  ZINC001289445798    0.0600
      3 O3         -9.1027   -0.8164   59.2086 O.3     1  ZINC001289445798   -0.3700
      4 C4        -10.2569   -1.4049   59.8115 C.3     1  ZINC001289445798    0.1100
      5 H5        -10.1912   -2.4904   59.7389 H       1  ZINC001289445798    0.0700
      6 C6        -11.5140   -0.9204   59.0863 C.3     1  ZINC001289445798   -0.1400
      7 C7        -11.7518   -1.7749   57.8679 C.2     1  ZINC001289445798    0.5400
      8 O8        -12.0767   -2.9364   57.9959 O.2     1  ZINC001289445798   -0.5200
      9 N9        -11.6034   -1.2484   56.6362 N.am    1  ZINC001289445798   -0.6200
     10 C10       -11.2081    0.1359   56.3379 C.3     1  ZINC001289445798    0.1000
     11 C11       -11.1423    0.2729   54.8023 C.3     1  ZINC001289445798    0.1400
     12 H12       -12.0719    0.6869   54.4117 H       1  ZINC001289445798    0.1200
     13 N13       -10.0009    1.1004   54.4041 N.am    1  ZINC001289445798   -0.7200
     14 C14       -10.2042    2.2479   53.7269 C.2     1  ZINC001289445798    0.6000
     15 O15       -11.3351    2.5955   53.4450 O.2     1  ZINC001289445798   -0.5100
     16 C16        -9.0578    3.0801   53.3284 C.2     1  ZINC001289445798   -0.0500
     17 C17        -7.7399    2.6753   53.2062 C.2     1  ZINC001289445798   -0.1400
     18 C18        -7.0382    3.8150   52.8069 C.2     1  ZINC001289445798    0.0000
     19 N19        -7.8945    4.7995   52.7083 N.2     1  ZINC001289445798   -0.2700
     20 N20        -9.0820    4.4057   52.9993 N.pl3   1  ZINC001289445798   -0.3800
     21 C21       -10.9534   -1.1931   54.3304 C.3     1  ZINC001289445798    0.0700
     22 H22        -9.9065   -1.4908   54.3896 H       1  ZINC001289445798    0.0900
     23 O23       -11.4605   -1.3746   53.0067 O.3     1  ZINC001289445798   -0.3700
     24 C24       -10.4941   -1.8674   52.0766 C.3     1  ZINC001289445798    0.0300
     25 C25       -11.8043   -1.9670   55.3647 C.3     1  ZINC001289445798    0.0800
     26 C26       -10.3279   -0.9955   61.2840 C.3     1  ZINC001289445798   -0.1100
     27 C27       -11.3647   -1.8600   62.0042 C.3     1  ZINC001289445798   -0.1500
     28 C28        -8.9577   -1.1938   61.9352 C.3     1  ZINC001289445798   -0.1500
     29 H29        -7.5085    0.8036   57.8172 H       1  ZINC001289445798    0.0600
     30 H30        -7.6642    2.1998   58.9103 H       1  ZINC001289445798    0.0700
     31 H31        -6.9234    0.6905   59.4944 H       1  ZINC001289445798    0.0600
     32 H32        -9.2500    0.9181   60.3214 H       1  ZINC001289445798    0.0500
     33 H33        -9.8350    1.0313   58.6442 H       1  ZINC001289445798    0.0500
     34 H34       -12.3711   -0.9954   59.7555 H       1  ZINC001289445798    0.1100
     35 H35       -11.3805    0.1176   58.7817 H       1  ZINC001289445798    0.1000
     36 H36       -11.9482    0.8276   56.7404 H       1  ZINC001289445798    0.0800
     37 H37       -10.2296    0.3435   56.7709 H       1  ZINC001289445798    0.0800
     38 H38        -9.0988    0.8227   54.6278 H       1  ZINC001289445798    0.4000
     39 H39        -7.3393    1.6878   53.3823 H       1  ZINC001289445798    0.1700
     40 H40        -5.9772    3.8734   52.6142 H       1  ZINC001289445798    0.1900
     41 H41        -9.8740    4.9657   52.9930 H       1  ZINC001289445798    0.4400
     42 H42       -10.9570   -1.9778   51.0959 H       1  ZINC001289445798    0.0900
     43 H43        -9.6634   -1.1649   52.0092 H       1  ZINC001289445798    0.0400
     44 H44       -10.1248   -2.8355   52.4150 H       1  ZINC001289445798    0.0500
     45 H45       -11.4564   -2.9966   55.4478 H       1  ZINC001289445798    0.0900
     46 H46       -12.8573   -1.9430   55.0838 H       1  ZINC001289445798    0.0900
     47 H47       -10.6161    0.0532   61.3561 H       1  ZINC001289445798    0.0800
     48 H48       -11.0764   -2.9088   61.9322 H       1  ZINC001289445798    0.0600
     49 H49       -11.4152   -1.5684   63.0534 H       1  ZINC001289445798    0.0600
     50 H50       -12.3409   -1.7188   61.5404 H       1  ZINC001289445798    0.0600
     51 H51        -8.2398   -0.5066   61.4873 H       1  ZINC001289445798    0.0600
     52 H52        -9.0315   -0.9960   63.0045 H       1  ZINC001289445798    0.0600
     53 H53        -8.6254   -2.2198   61.7775 H       1  ZINC001289445798    0.0500
@<TRIPOS>BOND
     1     1     2    1
     2     1    29    1
     3     1    30    1
     4     1    31    1
     5     2     3    1
     6     2    32    1
     7     2    33    1
     8     3     4    1
     9     4     5    1
    10     4     6    1
    11     4    26    1
    12     6     7    1
    13     6    34    1
    14     6    35    1
    15     7     8    2
    16     7     9   am
    17     9    25    1
    18     9    10    1
    19    10    11    1
    20    10    36    1
    21    10    37    1
    22    11    12    1
    23    11    13    1
    24    11    21    1
    25    13    14   am
    26    13    38    1
    27    14    15    2
    28    14    16    1
    29    16    20    1
    30    16    17    2
    31    17    18    1
    32    17    39    1
    33    18    19    2
    34    18    40    1
    35    19    20    1
    36    20    41    1
    37    21    22    1
    38    21    23    1
    39    21    25    1
    40    23    24    1
    41    24    42    1
    42    24    43    1
    43    24    44    1
    44    25    45    1
    45    25    46    1
    46    26    27    1
    47    26    28    1
    48    26    47    1
    49    27    48    1
    50    27    49    1
    51    27    50    1
    52    28    51    1
    53    28    52    1
    54    28    53    1
@<TRIPOS>SUBSTRUCTURE
     1 ZINC001289445798        1 TEMP              0 ****  ****    0 ROOT


##########                                Name:    ZINC001513543414
##########                DOCK_Rotatable_Bonds:                   6
##########                         Heavy_Atoms:                  26
##########                    Molecular_Weight:             364.488
##########                DOCK_Rotatable_Bonds:                   6
##########                       Formal_Charge:         -0.00999974
##########                     HBond_Acceptors:                   7
##########                        HBond_Donors:                   0
##########                         Heavy_Atoms:                  26
##########                          Grid_Score:          -28.411718
##########                     Grid_vdw_energy:          -26.690363
##########                      Grid_es_energy:           -1.721356
##########           Internal_energy_repulsive:           36.627518

@<TRIPOS>MOLECULE
ZINC001513543414
 58 61 1 0 0
SMALL
USER_CHARGES


@<TRIPOS>ATOM
      1 C1          3.5440    4.9747   52.3878 C.3     1  ZINC001513543414   -0.1500
      2 C2          2.1480    4.4626   52.0276 C.3     1  ZINC001513543414   -0.1200
      3 C3          1.8512    4.7797   50.5607 C.3     1  ZINC001513543414    0.1100
      4 C4          1.8847    6.2934   50.3400 C.3     1  ZINC001513543414   -0.1500
      5 C5          2.8957    4.0933   49.6546 C.3     1  ZINC001513543414   -0.1500
      6 C6          2.0305    3.6184   48.4554 C.3     1  ZINC001513543414   -0.1500
      7 C7          0.6993    3.2761   49.1704 C.3     1  ZINC001513543414    0.0700
      8 H8          0.7498    2.2783   49.6063 H       1  ZINC001513543414    0.0800
      9 C9         -0.4700    3.3668   48.1878 C.3     1  ZINC001513543414    0.1100
     10 N10        -1.4893    2.3785   48.5490 N.pl3   1  ZINC001513543414   -0.4600
     11 C11        -2.3453    2.4271   49.6142 C.2     1  ZINC001513543414    0.1900
     12 C12        -2.4206    3.5186   50.6505 C.3     1  ZINC001513543414    0.1800
     13 H13        -2.0755    4.4631   50.2299 H       1  ZINC001513543414    0.1000
     14 C14        -3.8711    3.6619   51.1762 C.3     1  ZINC001513543414   -0.1500
     15 C15        -3.6173    4.2873   52.5750 C.3     1  ZINC001513543414   -0.1500
     16 C16        -2.2876    3.6240   52.9940 C.3     1  ZINC001513543414    0.0500
     17 O17        -1.6353    3.1686   51.8012 O.3     1  ZINC001513543414   -0.3500
     18 N18        -3.0844    1.3551   49.5665 N.2     1  ZINC001513543414   -0.2600
     19 N19        -2.7561    0.6381   48.5517 N.2     1  ZINC001513543414   -0.3100
     20 C20        -1.7854    1.2215   47.8890 C.2     1  ZINC001513543414    0.3400
     21 N21        -1.1710    0.7478   46.7407 N.3     1  ZINC001513543414   -0.4500
     22 C22         0.2883    0.6146   46.9371 C.3     1  ZINC001513543414    0.0500
     23 C23         0.9052    0.9447   45.5550 C.3     1  ZINC001513543414   -0.1500
     24 C24        -0.0308    2.0770   45.0564 C.3     1  ZINC001513543414    0.0700
     25 H25         0.2699    3.0377   45.4745 H       1  ZINC001513543414    0.0800
     26 O26        -0.0425    2.1308   43.6284 O.3     1  ZINC001513543414   -0.3800
     27 C27         1.2468    1.9816   43.0306 C.3     1  ZINC001513543414    0.0300
     28 C28        -1.4108    1.6526   45.6015 C.3     1  ZINC001513543414    0.0600
     29 O29         0.5630    4.2651   50.2032 O.3     1  ZINC001513543414   -0.3600
     30 H30         3.7555    4.7486   53.4329 H       1  ZINC001513543414    0.0500
     31 H31         4.2846    4.4873   51.7537 H       1  ZINC001513543414    0.0500
     32 H32         3.5866    6.0528   52.2334 H       1  ZINC001513543414    0.0600
     33 H33         2.1055    3.3844   52.1820 H       1  ZINC001513543414    0.0700
     34 H34         1.4075    4.9499   52.6618 H       1  ZINC001513543414    0.0600
     35 H35         2.8756    6.6747   50.5868 H       1  ZINC001513543414    0.0700
     36 H36         1.6603    6.5135   49.2963 H       1  ZINC001513543414    0.0600
     37 H37         1.1422    6.7703   50.9797 H       1  ZINC001513543414    0.0700
     38 H38         3.6538    4.8051   49.3281 H       1  ZINC001513543414    0.0900
     39 H39         3.3525    3.2444   50.1634 H       1  ZINC001513543414    0.0800
     40 H40         1.8918    4.4198   47.7295 H       1  ZINC001513543414    0.0800
     41 H41         2.4623    2.7351   47.9848 H       1  ZINC001513543414    0.0900
     42 H42        -0.9024    4.3665   48.2290 H       1  ZINC001513543414    0.1000
     43 H43        -0.1121    3.1671   47.1778 H       1  ZINC001513543414    0.1100
     44 H44        -4.4531    4.3338   50.5452 H       1  ZINC001513543414    0.0900
     45 H45        -4.3555    2.6894   51.2627 H       1  ZINC001513543414    0.0900
     46 H46        -3.5050    5.3691   52.5017 H       1  ZINC001513543414    0.0800
     47 H47        -4.4168    4.0252   53.2680 H       1  ZINC001513543414    0.0900
     48 H48        -1.6564    4.3513   53.5043 H       1  ZINC001513543414    0.0700
     49 H49        -2.4875    2.7791   53.6529 H       1  ZINC001513543414    0.0700
     50 H50         0.6365    1.3245   47.6874 H       1  ZINC001513543414    0.0600
     51 H51         0.5401   -0.4042   47.2315 H       1  ZINC001513543414    0.0900
     52 H52         1.9294    1.3026   45.6600 H       1  ZINC001513543414    0.0800
     53 H53         0.8611    0.0811   44.8915 H       1  ZINC001513543414    0.0900
     54 H54         1.1527    2.0337   41.9459 H       1  ZINC001513543414    0.0900
     55 H55         1.9026    2.7803   43.3772 H       1  ZINC001513543414    0.0400
     56 H56         1.6687    1.0169   43.3128 H       1  ZINC001513543414    0.0400
     57 H57        -1.9716    1.1314   44.8256 H       1  ZINC001513543414    0.1000
     58 H58        -1.9636    2.5307   45.9353 H       1  ZINC001513543414    0.0900
@<TRIPOS>BOND
     1     1     2    1
     2     1    30    1
     3     1    31    1
     4     1    32    1
     5     2     3    1
     6     2    33    1
     7     2    34    1
     8     3    29    1
     9     3     4    1
    10     3     5    1
    11     4    35    1
    12     4    36    1
    13     4    37    1
    14     5     6    1
    15     5    38    1
    16     5    39    1
    17     6     7    1
    18     6    40    1
    19     6    41    1
    20     7     8    1
    21     7     9    1
    22     7    29    1
    23     9    10    1
    24     9    42    1
    25     9    43    1
    26    10    20    1
    27    10    11    1
    28    11    12    1
    29    11    18    2
    30    12    13    1
    31    12    17    1
    32    12    14    1
    33    14    15    1
    34    14    44    1
    35    14    45    1
    36    15    16    1
    37    15    46    1
    38    15    47    1
    39    16    17    1
    40    16    48    1
    41    16    49    1
    42    18    19    1
    43    19    20    2
    44    20    21    1
    45    21    28    1
    46    21    22    1
    47    22    23    1
    48    22    50    1
    49    22    51    1
    50    23    24    1
    51    23    52    1
    52    23    53    1
    53    24    25    1
    54    24    26    1
    55    24    28    1
    56    26    27    1
    57    27    54    1
    58    27    55    1
    59    27    56    1
    60    28    57    1
    61    28    58    1
@<TRIPOS>SUBSTRUCTURE
     1 ZINC001513543414        1 TEMP              0 ****  ****    0 ROOT


##########                                Name:    ZINC000274267583
##########                DOCK_Rotatable_Bonds:                   5
##########                         Heavy_Atoms:                  24
##########                    Molecular_Weight:             349.407
##########                DOCK_Rotatable_Bonds:                   5
##########                       Formal_Charge:           0.0300001
##########                     HBond_Acceptors:                   7
##########                        HBond_Donors:                   1
##########                         Heavy_Atoms:                  24
##########                          Grid_Score:          -28.401361
##########                     Grid_vdw_energy:          -27.091049
##########                      Grid_es_energy:           -1.310311
##########           Internal_energy_repulsive:           10.795536

@<TRIPOS>MOLECULE
ZINC000274267583
 43 45 1 0 0
SMALL
USER_CHARGES


@<TRIPOS>ATOM
      1 C1         -4.5511    5.2773   50.8882 C.3     1  ZINC000274267583    0.0200
      2 O2         -3.8542    6.1144   49.9632 O.3     1  ZINC000274267583   -0.3100
      3 C3         -2.6180    5.7068   49.5726 C.ar    1  ZINC000274267583    0.1900
      4 C4         -1.9961    6.3128   48.4906 C.ar    1  ZINC000274267583   -0.2300
      5 C5         -0.7393    5.8969   48.0959 C.ar    1  ZINC000274267583    0.0300
      6 C6         -0.1013    4.8773   48.7779 C.ar    1  ZINC000274267583   -0.7200
      7 S7          1.5014    4.3488   48.2716 S.o2    1  ZINC000274267583    2.7000
      8 O8          2.0234    5.3826   47.4480 O.2     1  ZINC000274267583   -0.9500
      9 O9          2.1581    3.8811   49.4418 O.2     1  ZINC000274267583   -0.9500
     10 N10         1.2958    3.0296   47.2919 N.am    1  ZINC000274267583   -1.1100
     11 C11         0.5171    3.1487   46.0567 C.3     1  ZINC000274267583    0.2100
     12 H12        -0.0698    4.0666   46.0852 H       1  ZINC000274267583    0.1000
     13 C13         1.4675    3.1888   44.8575 C.3     1  ZINC000274267583   -0.1800
     14 C14         0.6378    3.0162   43.5788 C.3     1  ZINC000274267583    0.0600
     15 O15         0.0538    1.7129   43.5935 O.3     1  ZINC000274267583   -0.3100
     16 C16        -0.5960    1.3207   44.7213 C.ar    1  ZINC000274267583    0.1100
     17 C17        -1.4685    0.2406   44.6414 C.ar    1  ZINC000274267583   -0.1100
     18 C18        -2.1444   -0.1927   45.7637 C.ar    1  ZINC000274267583   -0.1600
     19 C19        -1.9532    0.4508   46.9772 C.ar    1  ZINC000274267583    0.0900
     20 O20        -2.6154    0.0249   48.0859 O.3     1  ZINC000274267583   -0.3200
     21 C21        -2.3011   -1.2836   48.5667 C.3     1  ZINC000274267583    0.0300
     22 C22        -1.0858    1.5285   47.0577 C.ar    1  ZINC000274267583   -0.1000
     23 C23        -0.4084    1.9650   45.9310 C.ar    1  ZINC000274267583   -0.1400
     24 C24        -0.7188    4.2720   49.8568 C.ar    1  ZINC000274267583    0.0200
     25 C25        -1.9734    4.6878   50.2588 C.ar    1  ZINC000274267583   -0.1700
     26 H26        -4.6935    4.2900   50.4488 H       1  ZINC000274267583    0.0600
     27 H27        -3.9693    5.1863   51.8054 H       1  ZINC000274267583    0.0600
     28 H28        -5.5221    5.7171   51.1160 H       1  ZINC000274267583    0.1100
     29 H29        -2.4943    7.1087   47.9571 H       1  ZINC000274267583    0.1400
     30 H30        -0.2548    6.3684   47.2537 H       1  ZINC000274267583    0.1400
     31 H31         1.6908    2.1779   47.5360 H       1  ZINC000274267583    0.4200
     32 H32         1.9866    4.1469   44.8320 H       1  ZINC000274267583    0.1000
     33 H33         2.1931    2.3793   44.9366 H       1  ZINC000274267583    0.0900
     34 H34        -0.1486    3.7704   43.5469 H       1  ZINC000274267583    0.0700
     35 H35         1.2824    3.1199   42.7061 H       1  ZINC000274267583    0.1200
     36 H36        -1.6179   -0.2610   43.6967 H       1  ZINC000274267583    0.1400
     37 H37        -2.8215   -1.0314   45.6971 H       1  ZINC000274267583    0.1400
     38 H38        -2.5232   -2.0182   47.7926 H       1  ZINC000274267583    0.0600
     39 H39        -1.2422   -1.3326   48.8209 H       1  ZINC000274267583    0.0600
     40 H40        -2.8979   -1.4980   49.4532 H       1  ZINC000274267583    0.1000
     41 H41        -0.9372    2.0297   48.0027 H       1  ZINC000274267583    0.1300
     42 H42        -0.2183    3.4760   50.3882 H       1  ZINC000274267583    0.1500
     43 H43        -2.4552    4.2147   51.1016 H       1  ZINC000274267583    0.1400
@<TRIPOS>BOND
     1     1     2    1
     2     1    26    1
     3     1    27    1
     4     1    28    1
     5     2     3    1
     6     3    25   ar
     7     3     4   ar
     8     4     5   ar
     9     4    29    1
    10     5     6   ar
    11     5    30    1
    12     6     7    1
    13     6    24   ar
    14     7     8    2
    15     7     9    2
    16     7    10   am
    17    10    11    1
    18    10    31    1
    19    11    12    1
    20    11    23    1
    21    11    13    1
    22    13    14    1
    23    13    32    1
    24    13    33    1
    25    14    15    1
    26    14    34    1
    27    14    35    1
    28    15    16    1
    29    16    23   ar
    30    16    17   ar
    31    17    18   ar
    32    17    36    1
    33    18    19   ar
    34    18    37    1
    35    19    20    1
    36    19    22   ar
    37    20    21    1
    38    21    38    1
    39    21    39    1
    40    21    40    1
    41    22    23   ar
    42    22    41    1
    43    24    25   ar
    44    24    42    1
    45    25    43    1
@<TRIPOS>SUBSTRUCTURE
     1 ZINC000274267583        1 TEMP              0 ****  ****    0 ROOT


##########                                Name:    ZINC001199210165
##########                DOCK_Rotatable_Bonds:                   5
##########                         Heavy_Atoms:                  23
##########                    Molecular_Weight:             375.225
##########                DOCK_Rotatable_Bonds:                   5
##########                       Formal_Charge:         -0.00999999
##########                     HBond_Acceptors:                   6
##########                        HBond_Donors:                   2
##########                         Heavy_Atoms:                  23
##########                          Grid_Score:          -28.385248
##########                     Grid_vdw_energy:          -27.502956
##########                      Grid_es_energy:           -0.882291
##########           Internal_energy_repulsive:            4.863980

@<TRIPOS>MOLECULE
ZINC001199210165
 38 40 1 0 0
SMALL
USER_CHARGES


@<TRIPOS>ATOM
      1 C1        -10.6196   -1.5606   52.5057 C.3     1  ZINC001199210165   -0.1700
      2 C2        -11.2857   -1.5920   53.8827 C.3     1  ZINC001199210165    0.0800
      3 C3        -12.7478   -1.1608   53.7520 C.3     1  ZINC001199210165   -0.1500
      4 O4        -11.2258   -2.9186   54.4107 O.3     1  ZINC001199210165   -0.3000
      5 C5        -11.6850   -3.0999   55.6746 C.ar    1  ZINC001199210165    0.3300
      6 C6        -11.2074   -2.2953   56.7003 C.ar    1  ZINC001199210165   -0.1300
      7 C7        -11.6895   -2.4940   57.9955 C.ar    1  ZINC001199210165   -0.0600
      8 C8        -11.2100   -1.6600   59.1218 C.2     1  ZINC001199210165    0.5700
      9 O9        -12.0018   -1.0145   59.7800 O.2     1  ZINC001199210165   -0.4900
     10 N10        -9.8956   -1.6170   59.4166 N.am    1  ZINC001199210165   -0.6600
     11 C11        -9.4430   -0.8298   60.4797 C.ar    1  ZINC001199210165    0.2000
     12 C12        -8.8529    0.4086   60.2222 C.ar    1  ZINC001199210165   -0.1500
     13 C13        -8.4062    1.1900   61.2462 C.ar    1  ZINC001199210165   -0.0200
     14 C14        -8.5386    0.7499   62.5680 C.ar    1  ZINC001199210165   -0.1700
     15 C15        -8.1788    1.3177   63.8642 C.2     1  ZINC001199210165    0.0900
     16 Br16       -7.3429    2.9887   64.1554 Br      1  ZINC001199210165    0.0600
     17 N17        -8.5368    0.4677   64.7844 N.2     1  ZINC001199210165   -0.2100
     18 N18        -9.1248   -0.6573   64.1969 N.pl3   1  ZINC001199210165   -0.4900
     19 C19        -9.1333   -0.4990   62.8352 C.ar    1  ZINC001199210165    0.1500
     20 C20        -9.5886   -1.2815   61.7786 C.ar    1  ZINC001199210165   -0.1700
     21 C21       -12.6382   -3.5021   58.2009 C.ar    1  ZINC001199210165   -0.1900
     22 C22       -13.0598   -4.2572   57.1253 C.ar    1  ZINC001199210165    0.1400
     23 N23       -12.5860   -4.0373   55.9142 N.ar    1  ZINC001199210165   -0.5200
     24 H24       -11.1410   -2.2428   51.8342 H       1  ZINC001199210165    0.0600
     25 H25       -10.6653   -0.5488   52.1030 H       1  ZINC001199210165    0.0700
     26 H26        -9.5781   -1.8679   52.5988 H       1  ZINC001199210165    0.0600
     27 H27       -10.7644   -0.9099   54.5542 H       1  ZINC001199210165    0.0900
     28 H28       -13.2693   -1.8430   53.0805 H       1  ZINC001199210165    0.0700
     29 H29       -13.2224   -1.1831   54.7330 H       1  ZINC001199210165    0.0600
     30 H30       -12.7936   -0.1489   53.3492 H       1  ZINC001199210165    0.0800
     31 H31       -10.4743   -1.5280   56.4995 H       1  ZINC001199210165    0.1600
     32 H32        -9.2635   -2.1322   58.8913 H       1  ZINC001199210165    0.4100
     33 H33        -8.7491    0.7508   59.2031 H       1  ZINC001199210165    0.1500
     34 H34        -7.9505    2.1467   61.0377 H       1  ZINC001199210165    0.1400
     35 H35        -9.4712   -1.4261   64.6762 H       1  ZINC001199210165    0.4500
     36 H36       -10.0505   -2.2384   61.9718 H       1  ZINC001199210165    0.1400
     37 H37       -13.0351   -3.6870   59.1881 H       1  ZINC001199210165    0.1400
     38 H38       -13.7915   -5.0369   57.2768 H       1  ZINC001199210165    0.1700
@<TRIPOS>BOND
     1     1     2    1
     2     1    24    1
     3     1    25    1
     4     1    26    1
     5     2     3    1
     6     2     4    1
     7     2    27    1
     8     3    28    1
     9     3    29    1
    10     3    30    1
    11     4     5    1
    12     5    23   ar
    13     5     6   ar
    14     6     7   ar
    15     6    31    1
    16     7     8    1
    17     7    21   ar
    18     8     9    2
    19     8    10   am
    20    10    11    1
    21    10    32    1
    22    11    20   ar
    23    11    12   ar
    24    12    13   ar
    25    12    33    1
    26    13    14   ar
    27    13    34    1
    28    14    19   ar
    29    14    15    1
    30    15    16    1
    31    15    17    2
    32    17    18    1
    33    18    19    1
    34    18    35    1
    35    19    20   ar
    36    20    36    1
    37    21    22   ar
    38    21    37    1
    39    22    23   ar
    40    22    38    1
@<TRIPOS>SUBSTRUCTURE
     1 ZINC001199210165        1 TEMP              0 ****  ****    0 ROOT


##########                                Name:    ZINC000971513996
##########                DOCK_Rotatable_Bonds:                   6
##########                         Heavy_Atoms:                  27
##########                    Molecular_Weight:             369.464
##########                DOCK_Rotatable_Bonds:                   6
##########                       Formal_Charge:          -0.0300002
##########                     HBond_Acceptors:                   6
##########                        HBond_Donors:                   1
##########                         Heavy_Atoms:                  27
##########                          Grid_Score:          -28.364195
##########                     Grid_vdw_energy:          -27.158346
##########                      Grid_es_energy:           -1.205848
##########           Internal_energy_repulsive:           13.493933

@<TRIPOS>MOLECULE
ZINC000971513996
 54 57 1 0 0
SMALL
USER_CHARGES


@<TRIPOS>ATOM
      1 C1        -14.7073   -3.5102   59.3314 C.3     1  ZINC000971513996   -0.1600
      2 C2        -14.3142   -2.0670   59.0097 C.3     1  ZINC000971513996   -0.1400
      3 C3        -12.7914   -1.9290   59.0639 C.3     1  ZINC000971513996    0.0800
      4 H4        -12.3511   -2.8795   59.3654 H       1  ZINC000971513996    0.0800
      5 O5        -12.2998   -1.5644   57.7726 O.3     1  ZINC000971513996   -0.3600
      6 C6        -12.0727   -2.6749   56.9024 C.3     1  ZINC000971513996    0.0200
      7 C7        -12.4188   -0.8636   60.0625 C.2     1  ZINC000971513996    0.5400
      8 O8        -12.8783    0.2537   59.9570 O.2     1  ZINC000971513996   -0.5100
      9 N9        -11.5749   -1.1526   61.0729 N.am    1  ZINC000971513996   -0.6400
     10 C10       -10.8285   -2.3341   61.5377 C.3     1  ZINC000971513996    0.1000
     11 C11        -9.7813   -1.3642   62.1179 C.3     1  ZINC000971513996   -0.1200
     12 H12        -9.3602   -1.6605   63.0786 H       1  ZINC000971513996    0.1100
     13 C13        -8.7297   -0.9867   61.0716 C.3     1  ZINC000971513996   -0.1200
     14 C14        -8.3514    0.4870   61.2461 C.3     1  ZINC000971513996    0.1100
     15 N15        -9.5666    1.2930   61.1019 N.am    1  ZINC000971513996   -0.6000
     16 C16        -9.6140    2.2713   60.1760 C.2     1  ZINC000971513996    0.5900
     17 O17       -10.6204    2.9433   60.0522 O.2     1  ZINC000971513996   -0.5200
     18 C18        -8.4491    2.5264   59.3155 C.2     1  ZINC000971513996    0.0200
     19 C19        -7.5325    3.5117   59.5024 C.2     1  ZINC000971513996   -0.1000
     20 C20        -6.5775    3.4154   58.4615 C.ar    1  ZINC000971513996   -0.1100
     21 C21        -5.4271    4.1471   58.1406 C.ar    1  ZINC000971513996   -0.0600
     22 C22        -4.6898    3.8065   57.0439 C.ar    1  ZINC000971513996   -0.1200
     23 C23        -3.4527    4.5960   56.7015 C.3     1  ZINC000971513996   -0.1100
     24 C24        -5.0687    2.7386   56.2406 C.ar    1  ZINC000971513996   -0.0800
     25 C25        -6.1955    2.0038   56.5352 C.ar    1  ZINC000971513996   -0.1300
     26 C26        -6.9643    2.3320   57.6481 C.ar    1  ZINC000971513996    0.1100
     27 N27        -8.1090    1.7985   58.1916 N.pl3   1  ZINC000971513996   -0.5800
     28 C28       -10.7243    1.0450   61.9511 C.3     1  ZINC000971513996    0.0700
     29 C29       -10.9806   -0.4317   62.2009 C.3     1  ZINC000971513996    0.1300
     30 H30       -11.5521   -0.5840   63.1165 H       1  ZINC000971513996    0.1100
     31 H31       -15.7929   -3.5855   59.3953 H       1  ZINC000971513996    0.0600
     32 H32       -14.3431   -4.1701   58.5440 H       1  ZINC000971513996    0.0600
     33 H33       -14.2661   -3.8033   60.2841 H       1  ZINC000971513996    0.0600
     34 H34       -14.6672   -1.8082   58.0114 H       1  ZINC000971513996    0.0800
     35 H35       -14.7661   -1.3959   59.7401 H       1  ZINC000971513996    0.0800
     36 H36       -11.2672   -3.2909   57.3021 H       1  ZINC000971513996    0.0400
     37 H37       -12.9827   -3.2703   56.8280 H       1  ZINC000971513996    0.0500
     38 H38       -11.7950   -2.3105   55.9134 H       1  ZINC000971513996    0.0900
     39 H39       -11.3557   -2.9107   62.2977 H       1  ZINC000971513996    0.0900
     40 H40       -10.4455   -2.9537   60.7268 H       1  ZINC000971513996    0.0800
     41 H41        -7.8442   -1.6082   61.2046 H       1  ZINC000971513996    0.0900
     42 H42        -9.1379   -1.1419   60.0728 H       1  ZINC000971513996    0.0700
     43 H43        -7.9232    0.6417   62.2365 H       1  ZINC000971513996    0.0800
     44 H44        -7.6275    0.7735   60.4833 H       1  ZINC000971513996    0.1000
     45 H45        -7.5324    4.2382   60.3017 H       1  ZINC000971513996    0.1500
     46 H46        -5.1246    4.9791   58.7592 H       1  ZINC000971513996    0.1200
     47 H47        -2.5893    4.1511   57.1962 H       1  ZINC000971513996    0.0700
     48 H48        -3.3001    4.5823   55.6223 H       1  ZINC000971513996    0.0600
     49 H49        -3.5738    5.6255   57.0383 H       1  ZINC000971513996    0.0600
     50 H50        -4.4740    2.4822   55.3763 H       1  ZINC000971513996    0.1300
     51 H51        -6.4822    1.1754   55.9043 H       1  ZINC000971513996    0.1200
     52 H52        -8.5979    1.0369   57.8427 H       1  ZINC000971513996    0.4200
     53 H53       -10.5633    1.5292   62.9143 H       1  ZINC000971513996    0.0800
     54 H54       -11.6044    1.4852   61.4823 H       1  ZINC000971513996    0.1200
@<TRIPOS>BOND
     1     1     2    1
     2     1    31    1
     3     1    32    1
     4     1    33    1
     5     2     3    1
     6     2    34    1
     7     2    35    1
     8     3     4    1
     9     3     5    1
    10     3     7    1
    11     5     6    1
    12     6    36    1
    13     6    37    1
    14     6    38    1
    15     7     8    2
    16     7     9   am
    17     9    29    1
    18     9    10    1
    19    10    11    1
    20    10    39    1
    21    10    40    1
    22    11    12    1
    23    11    29    1
    24    11    13    1
    25    13    14    1
    26    13    41    1
    27    13    42    1
    28    14    15    1
    29    14    43    1
    30    14    44    1
    31    15    16   am
    32    15    28    1
    33    16    17    2
    34    16    18    1
    35    18    27    1
    36    18    19    2
    37    19    20    1
    38    19    45    1
    39    20    26   ar
    40    20    21   ar
    41    21    22   ar
    42    21    46    1
    43    22    23    1
    44    22    24   ar
    45    23    47    1
    46    23    48    1
    47    23    49    1
    48    24    25   ar
    49    24    50    1
    50    25    26   ar
    51    25    51    1
    52    26    27    1
    53    27    52    1
    54    28    29    1
    55    28    53    1
    56    28    54    1
    57    29    30    1
@<TRIPOS>SUBSTRUCTURE
     1 ZINC000971513996        1 TEMP              0 ****  ****    0 ROOT


##########                                Name:    ZINC000469459940
##########                DOCK_Rotatable_Bonds:                   7
##########                         Heavy_Atoms:                  24
##########                    Molecular_Weight:             414.295
##########                DOCK_Rotatable_Bonds:                   7
##########                       Formal_Charge:          -0.0200002
##########                     HBond_Acceptors:                   6
##########                        HBond_Donors:                   1
##########                         Heavy_Atoms:                  24
##########                          Grid_Score:          -28.360655
##########                     Grid_vdw_energy:          -26.615412
##########                      Grid_es_energy:           -1.745244
##########           Internal_energy_repulsive:           13.132411

@<TRIPOS>MOLECULE
ZINC000469459940
 41 42 1 0 0
SMALL
USER_CHARGES


@<TRIPOS>ATOM
      1 C1         -7.1609    1.7359   57.5756 C.3     1  ZINC000469459940   -0.1600
      2 C2         -6.6573    2.4958   56.3468 C.3     1  ZINC000469459940   -0.1200
      3 C3         -5.1314    2.4058   56.2814 C.3     1  ZINC000469459940   -0.1200
      4 C4         -4.5178    3.5241   57.1263 C.3     1  ZINC000469459940   -0.6000
      5 S5         -4.3912    5.0347   56.1301 S.o2    1  ZINC000469459940    2.4900
      6 O6         -5.6830    5.5026   55.7674 O.2     1  ZINC000469459940   -0.9300
      7 O7         -3.4210    5.9151   56.6804 O.2     1  ZINC000469459940   -0.9300
      8 C8         -3.6799    4.5001   54.6093 C.ar    1  ZINC000469459940   -0.6400
      9 C9         -4.4581    4.4455   53.4666 C.ar    1  ZINC000469459940   -0.0300
     10 C10        -3.9075    4.0275   52.2727 C.ar    1  ZINC000469459940   -0.0800
     11 C11        -2.5620    3.6596   52.2192 C.ar    1  ZINC000469459940   -0.0900
     12 C12        -1.9652    3.2112   50.9433 C.2     1  ZINC000469459940    0.5600
     13 O13        -0.7649    3.0371   50.8619 O.2     1  ZINC000469459940   -0.5000
     14 N14        -2.7518    2.9957   49.8704 N.am    1  ZINC000469459940   -0.6700
     15 C15        -2.1870    2.5714   48.6630 C.ar    1  ZINC000469459940    0.1900
     16 C16        -1.2899    3.3900   47.9895 C.ar    1  ZINC000469459940   -0.1500
     17 C17        -0.7329    2.9697   46.7972 C.ar    1  ZINC000469459940   -0.0400
     18 C18        -1.0676    1.7345   46.2729 C.ar    1  ZINC000469459940   -0.1500
     19 Br19       -0.3028    1.1630   44.6406 Br      1  ZINC000469459940   -0.0200
     20 C20        -1.9627    0.9146   46.9422 C.ar    1  ZINC000469459940    0.1500
     21 F21        -2.2882   -0.2916   46.4281 F       1  ZINC000469459940   -0.1200
     22 C22        -2.5181    1.3286   48.1392 C.ar    1  ZINC000469459940   -0.1500
     23 C23        -1.7824    3.7175   53.3756 C.ar    1  ZINC000469459940   -0.1100
     24 C24        -2.3442    4.1422   54.5619 C.ar    1  ZINC000469459940   -0.0300
     25 H25        -6.8612    0.6903   57.5041 H       1  ZINC000469459940    0.0600
     26 H26        -6.7320    2.1760   58.4759 H       1  ZINC000469459940    0.0600
     27 H27        -8.2479    1.8000   57.6222 H       1  ZINC000469459940    0.0600
     28 H28        -7.0861    2.0557   55.4466 H       1  ZINC000469459940    0.0700
     29 H29        -6.9569    3.5414   56.4183 H       1  ZINC000469459940    0.0700
     30 H30        -4.8075    1.4393   56.6675 H       1  ZINC000469459940    0.0800
     31 H31        -4.8052    2.5115   55.2467 H       1  ZINC000469459940    0.0800
     32 H32        -5.1503    3.7128   57.9937 H       1  ZINC000469459940    0.1400
     33 H33        -3.5242    3.2243   57.4596 H       1  ZINC000469459940    0.1400
     34 H34        -5.4989    4.7304   53.5094 H       1  ZINC000469459940    0.1500
     35 H35        -4.5162    3.9846   51.3817 H       1  ZINC000469459940    0.1500
     36 H36        -3.7096    3.1348   49.9353 H       1  ZINC000469459940    0.4200
     37 H37        -1.0280    4.3550   48.3973 H       1  ZINC000469459940    0.1500
     38 H38        -0.0352    3.6066   46.2737 H       1  ZINC000469459940    0.1500
     39 H39        -3.2154    0.6901   48.6612 H       1  ZINC000469459940    0.1600
     40 H40        -0.7410    3.4339   53.3410 H       1  ZINC000469459940    0.1400
     41 H41        -1.7422    4.1875   55.4574 H       1  ZINC000469459940    0.1500
@<TRIPOS>BOND
     1     1     2    1
     2     1    25    1
     3     1    26    1
     4     1    27    1
     5     2     3    1
     6     2    28    1
     7     2    29    1
     8     3     4    1
     9     3    30    1
    10     3    31    1
    11     4     5    1
    12     4    32    1
    13     4    33    1
    14     5     6    2
    15     5     7    2
    16     5     8    1
    17     8    24   ar
    18     8     9   ar
    19     9    10   ar
    20     9    34    1
    21    10    11   ar
    22    10    35    1
    23    11    12    1
    24    11    23   ar
    25    12    13    2
    26    12    14   am
    27    14    15    1
    28    14    36    1
    29    15    22   ar
    30    15    16   ar
    31    16    17   ar
    32    16    37    1
    33    17    18   ar
    34    17    38    1
    35    18    19    1
    36    18    20   ar
    37    20    21    1
    38    20    22   ar
    39    22    39    1
    40    23    24   ar
    41    23    40    1
    42    24    41    1
@<TRIPOS>SUBSTRUCTURE
     1 ZINC000469459940        1 TEMP              0 ****  ****    0 ROOT


##########                                Name:    ZINC000590699876
##########                DOCK_Rotatable_Bonds:                   9
##########                         Heavy_Atoms:                  30
##########                    Molecular_Weight:              421.54
##########                DOCK_Rotatable_Bonds:                   9
##########                       Formal_Charge:          -0.0300004
##########                     HBond_Acceptors:                   9
##########                        HBond_Donors:                   1
##########                         Heavy_Atoms:                  30
##########                          Grid_Score:          -28.356682
##########                     Grid_vdw_energy:          -26.677818
##########                      Grid_es_energy:           -1.678864
##########           Internal_energy_repulsive:          102.181221

@<TRIPOS>MOLECULE
ZINC000590699876
 65 67 1 0 0
SMALL
USER_CHARGES


@<TRIPOS>ATOM
      1 C1        -15.7393    2.5419   65.8409 C.3     1  ZINC000590699876   -0.1700
      2 C2        -14.7974    1.6753   65.0454 C.2     1  ZINC000590699876    0.5100
      3 O3        -15.1956    0.6423   64.5505 O.2     1  ZINC000590699876   -0.5500
      4 N4        -13.5124    2.0484   64.8838 N.am    1  ZINC000590699876   -0.7200
      5 C5        -12.5971    1.2069   64.1090 C.3     1  ZINC000590699876    0.1100
      6 C6        -11.2050    1.3263   64.6737 C.2     1  ZINC000590699876    0.5300
      7 O7        -11.0468    1.5266   65.8593 O.2     1  ZINC000590699876   -0.5200
      8 N8        -10.1360    1.2107   63.8612 N.am    1  ZINC000590699876   -0.6000
      9 C9         -8.7252    1.3059   64.2786 C.3     1  ZINC000590699876    0.1000
     10 C10        -7.9387    0.5195   63.2003 C.3     1  ZINC000590699876   -0.1300
     11 C11        -8.7255    0.8836   61.9135 C.3     1  ZINC000590699876   -0.1300
     12 C12       -10.1835    0.9625   62.4129 C.3     1  ZINC000590699876    0.1200
     13 H13       -10.7009    1.7842   61.9178 H       1  ZINC000590699876    0.1000
     14 C14       -10.8937   -0.3358   62.1282 C.2     1  ZINC000590699876    0.5100
     15 O15       -10.9393   -1.2009   62.9771 O.2     1  ZINC000590699876   -0.5200
     16 N16       -11.4781   -0.5356   60.9304 N.am    1  ZINC000590699876   -0.6100
     17 C17       -11.4279    0.4970   59.8842 C.3     1  ZINC000590699876    0.1000
     18 C18       -10.9279   -0.1481   58.5872 C.3     1  ZINC000590699876    0.0400
     19 N19       -11.7637   -1.3137   58.2698 N.3     1  ZINC000590699876   -0.5200
     20 C20       -11.4276   -1.8581   56.9475 C.3     1  ZINC000590699876    0.0400
     21 C21       -12.2668   -1.1786   55.8964 C.2     1  ZINC000590699876    0.5200
     22 O22       -13.1070   -0.3669   56.2225 O.2     1  ZINC000590699876   -0.5100
     23 N23       -12.0837   -1.4727   54.5939 N.am    1  ZINC000590699876   -0.6100
     24 C24       -11.0699   -2.4536   54.1833 C.3     1  ZINC000590699876    0.1100
     25 C25       -10.1530   -1.8077   53.1398 C.3     1  ZINC000590699876   -0.1400
     26 C26       -11.0016   -1.2618   51.9891 C.3     1  ZINC000590699876   -0.1200
     27 C27       -11.9573   -0.1914   52.5211 C.3     1  ZINC000590699876   -0.1300
     28 C28       -12.8984   -0.8231   53.5580 C.3     1  ZINC000590699876    0.1400
     29 H29       -13.5362   -1.5608   53.0711 H       1  ZINC000590699876    0.0700
     30 C30       -13.7659    0.2652   54.1936 C.3     1  ZINC000590699876   -0.1400
     31 C31       -11.6534   -2.3470   59.3081 C.3     1  ZINC000590699876    0.0400
     32 C32       -12.1779   -1.7946   60.6325 C.3     1  ZINC000590699876    0.1200
     33 H33       -16.7268    2.0812   65.8617 H       1  ZINC000590699876    0.1000
     34 H34       -15.3651    2.6456   66.8593 H       1  ZINC000590699876    0.0900
     35 H35       -15.8071    3.5260   65.3769 H       1  ZINC000590699876    0.0900
     36 H36       -13.1935    2.8741   65.2805 H       1  ZINC000590699876    0.4100
     37 H37       -12.9238    0.1684   64.1640 H       1  ZINC000590699876    0.1000
     38 H38       -12.5965    1.5329   63.0688 H       1  ZINC000590699876    0.1000
     39 H39        -8.4048    2.3476   64.2976 H       1  ZINC000590699876    0.0800
     40 H40        -8.5877    0.8478   65.2580 H       1  ZINC000590699876    0.0800
     41 H41        -6.9072    0.8660   63.1387 H       1  ZINC000590699876    0.0900
     42 H42        -7.9783   -0.5528   63.3922 H       1  ZINC000590699876    0.0800
     43 H43        -8.3963    1.8450   61.5193 H       1  ZINC000590699876    0.1000
     44 H44        -8.6194    0.1010   61.1623 H       1  ZINC000590699876    0.0900
     45 H45       -12.4250    0.9085   59.7277 H       1  ZINC000590699876    0.0800
     46 H46       -10.7444    1.2907   60.1856 H       1  ZINC000590699876    0.0900
     47 H47       -10.9887    0.5754   57.7742 H       1  ZINC000590699876    0.0900
     48 H48        -9.8931   -0.4663   58.7147 H       1  ZINC000590699876    0.0400
     49 H49       -10.3722   -1.6821   56.7397 H       1  ZINC000590699876    0.1000
     50 H50       -11.6265   -2.9297   56.9345 H       1  ZINC000590699876    0.0600
     51 H51       -10.4815   -2.7555   55.0498 H       1  ZINC000590699876    0.0800
     52 H52       -11.5595   -3.3256   53.7498 H       1  ZINC000590699876    0.0700
     53 H53        -9.5961   -0.9916   53.6001 H       1  ZINC000590699876    0.0700
     54 H54        -9.4564   -2.5532   52.7562 H       1  ZINC000590699876    0.0800
     55 H55       -10.3498   -0.8234   51.2334 H       1  ZINC000590699876    0.0700
     56 H56       -11.5770   -2.0740   51.5451 H       1  ZINC000590699876    0.0600
     57 H57       -11.3834    0.6096   52.9873 H       1  ZINC000590699876    0.0700
     58 H58       -12.5449    0.2135   51.6972 H       1  ZINC000590699876    0.0700
     59 H59       -14.3107    0.7972   53.4136 H       1  ZINC000590699876    0.0400
     60 H60       -14.4744   -0.1920   54.8843 H       1  ZINC000590699876    0.0700
     61 H61       -13.1308    0.9659   54.7356 H       1  ZINC000590699876    0.0700
     62 H62       -12.2405   -3.2183   59.0179 H       1  ZINC000590699876    0.1100
     63 H63       -10.6086   -2.6346   59.4255 H       1  ZINC000590699876    0.0300
     64 H64       -11.9930   -2.5154   61.4288 H       1  ZINC000590699876    0.0900
     65 H65       -13.2475   -1.6015   60.5507 H       1  ZINC000590699876    0.0800
@<TRIPOS>BOND
     1     1     2    1
     2     1    33    1
     3     1    34    1
     4     1    35    1
     5     2     3    2
     6     2     4   am
     7     4     5    1
     8     4    36    1
     9     5     6    1
    10     5    37    1
    11     5    38    1
    12     6     7    2
    13     6     8   am
    14     8    12    1
    15     8     9    1
    16     9    10    1
    17     9    39    1
    18     9    40    1
    19    10    11    1
    20    10    41    1
    21    10    42    1
    22    11    12    1
    23    11    43    1
    24    11    44    1
    25    12    13    1
    26    12    14    1
    27    14    15    2
    28    14    16   am
    29    16    32    1
    30    16    17    1
    31    17    18    1
    32    17    45    1
    33    17    46    1
    34    18    19    1
    35    18    47    1
    36    18    48    1
    37    19    20    1
    38    19    31    1
    39    20    21    1
    40    20    49    1
    41    20    50    1
    42    21    22    2
    43    21    23   am
    44    23    28    1
    45    23    24    1
    46    24    25    1
    47    24    51    1
    48    24    52    1
    49    25    26    1
    50    25    53    1
    51    25    54    1
    52    26    27    1
    53    26    55    1
    54    26    56    1
    55    27    28    1
    56    27    57    1
    57    27    58    1
    58    28    29    1
    59    28    30    1
    60    30    59    1
    61    30    60    1
    62    30    61    1
    63    31    32    1
    64    31    62    1
    65    31    63    1
    66    32    64    1
    67    32    65    1
@<TRIPOS>SUBSTRUCTURE
     1 ZINC000590699876        1 TEMP              0 ****  ****    0 ROOT


##########                                Name:    ZINC000962855438
##########                DOCK_Rotatable_Bonds:                   7
##########                         Heavy_Atoms:                  27
##########                    Molecular_Weight:             370.448
##########                DOCK_Rotatable_Bonds:                   7
##########                       Formal_Charge:           0.0300005
##########                     HBond_Acceptors:                   6
##########                        HBond_Donors:                   2
##########                         Heavy_Atoms:                  27
##########                          Grid_Score:          -28.355867
##########                     Grid_vdw_energy:          -28.058174
##########                      Grid_es_energy:           -0.297692
##########           Internal_energy_repulsive:            9.704082

@<TRIPOS>MOLECULE
ZINC000962855438
 53 56 1 0 0
SMALL
USER_CHARGES


@<TRIPOS>ATOM
      1 C1        -14.5058   -2.7858   55.5250 C.3     1  ZINC000962855438   -0.1100
      2 C2        -13.3324   -2.5778   56.4476 C.2     1  ZINC000962855438   -0.1700
      3 C3        -12.0388   -2.1363   55.9041 C.2     1  ZINC000962855438    0.5600
      4 O4        -11.0726   -2.0396   56.6365 O.2     1  ZINC000962855438   -0.5400
      5 N5        -11.9241   -1.8390   54.5945 N.am    1  ZINC000962855438   -0.7100
      6 C6        -10.6361   -1.3976   54.0536 C.3     1  ZINC000962855438    0.1500
      7 H7         -9.8149   -1.9604   54.4974 H       1  ZINC000962855438    0.1200
      8 C8        -10.4404    0.1253   54.2587 C.3     1  ZINC000962855438    0.1000
      9 N9         -9.4973    0.5303   53.2003 N.am    1  ZINC000962855438   -0.6100
     10 C10        -8.6893    1.6083   53.2388 C.2     1  ZINC000962855438    0.5800
     11 O11        -7.9481    1.8462   52.3048 O.2     1  ZINC000962855438   -0.5200
     12 C12        -8.7041    2.4997   54.4144 C.ar    1  ZINC000962855438   -0.1500
     13 C13        -9.8458    3.2436   54.7126 C.ar    1  ZINC000962855438   -0.0600
     14 C14        -9.8623    4.0779   55.8097 C.ar    1  ZINC000962855438   -0.1500
     15 C15        -8.7410    4.1818   56.6175 C.ar    1  ZINC000962855438   -0.0500
     16 C16        -7.6076    3.4542   56.3306 C.ar    1  ZINC000962855438   -0.1800
     17 C17        -7.5689    2.5964   55.2396 C.ar    1  ZINC000962855438    0.1600
     18 O18        -6.3704    1.9626   55.1520 O.3     1  ZINC000962855438   -0.2800
     19 C19        -5.3929    2.6889   55.9165 C.3     1  ZINC000962855438    0.0700
     20 H20        -4.8912    3.4314   55.2960 H       1  ZINC000962855438    0.0900
     21 C21        -4.3761    1.7333   56.5440 C.3     1  ZINC000962855438   -0.1500
     22 C22        -6.2535    3.3705   57.0088 C.3     1  ZINC000962855438   -0.1100
     23 C23        -9.5837   -0.4368   52.0964 C.3     1  ZINC000962855438    0.0700
     24 C24       -10.6150   -1.5099   52.5063 C.3     1  ZINC000962855438    0.0900
     25 H25       -10.2848   -2.5009   52.1949 H       1  ZINC000962855438    0.0900
     26 O26       -11.9002   -1.2115   51.9573 O.3     1  ZINC000962855438   -0.5600
     27 C27       -13.4666   -2.7933   57.7531 C.2     1  ZINC000962855438   -0.0600
     28 C28       -14.5768   -3.2401   58.6805 C.3     1  ZINC000962855438   -0.1000
     29 C29       -13.8540   -2.4756   59.8007 C.3     1  ZINC000962855438   -0.1400
     30 C30       -12.5758   -2.7075   58.9742 C.3     1  ZINC000962855438   -0.1100
     31 H31       -14.5101   -3.8162   55.1695 H       1  ZINC000962855438    0.0700
     32 H32       -15.4316   -2.5834   56.0635 H       1  ZINC000962855438    0.0700
     33 H33       -14.4242   -2.1085   54.6750 H       1  ZINC000962855438    0.0700
     34 H34       -12.6944   -1.9173   54.0102 H       1  ZINC000962855438    0.4100
     35 H35       -11.3892    0.6489   54.1420 H       1  ZINC000962855438    0.0800
     36 H36       -10.0149    0.3241   55.2423 H       1  ZINC000962855438    0.0900
     37 H37       -10.7191    3.1659   54.0820 H       1  ZINC000962855438    0.1400
     38 H38       -10.7486    4.6507   56.0394 H       1  ZINC000962855438    0.1400
     39 H39        -8.7559    4.8369   57.4760 H       1  ZINC000962855438    0.1300
     40 H40        -3.8474    1.1968   55.7562 H       1  ZINC000962855438    0.0700
     41 H41        -3.6616    2.3024   57.1386 H       1  ZINC000962855438    0.0800
     42 H42        -4.8950    1.0199   57.1843 H       1  ZINC000962855438    0.0700
     43 H43        -5.8747    4.3664   57.2381 H       1  ZINC000962855438    0.1000
     44 H44        -6.2997    2.7562   57.9080 H       1  ZINC000962855438    0.1000
     45 H45        -9.9131    0.0665   51.1875 H       1  ZINC000962855438    0.0800
     46 H46        -8.6111   -0.9014   51.9336 H       1  ZINC000962855438    0.0800
     47 H47       -11.9291   -1.2302   50.9910 H       1  ZINC000962855438    0.3900
     48 H48       -15.5512   -2.8227   58.4266 H       1  ZINC000962855438    0.0900
     49 H49       -14.6059   -4.3183   58.8375 H       1  ZINC000962855438    0.1000
     50 H50       -14.1479   -1.4290   59.8801 H       1  ZINC000962855438    0.0900
     51 H51       -13.8556   -2.9939   60.7595 H       1  ZINC000962855438    0.0800
     52 H52       -12.0658   -3.6408   59.2131 H       1  ZINC000962855438    0.1000
     53 H53       -11.9038   -1.8493   58.9609 H       1  ZINC000962855438    0.0800
@<TRIPOS>BOND
     1     1     2    1
     2     1    31    1
     3     1    32    1
     4     1    33    1
     5     2     3    1
     6     2    27    2
     7     3     4    2
     8     3     5   am
     9     5     6    1
    10     5    34    1
    11     6     7    1
    12     6    24    1
    13     6     8    1
    14     8     9    1
    15     8    35    1
    16     8    36    1
    17     9    10   am
    18     9    23    1
    19    10    11    2
    20    10    12    1
    21    12    17   ar
    22    12    13   ar
    23    13    14   ar
    24    13    37    1
    25    14    15   ar
    26    14    38    1
    27    15    16   ar
    28    15    39    1
    29    16    22    1
    30    16    17   ar
    31    17    18    1
    32    18    19    1
    33    19    20    1
    34    19    21    1
    35    19    22    1
    36    21    40    1
    37    21    41    1
    38    21    42    1
    39    22    43    1
    40    22    44    1
    41    23    24    1
    42    23    45    1
    43    23    46    1
    44    24    25    1
    45    24    26    1
    46    26    47    1
    47    27    30    1
    48    27    28    1
    49    28    29    1
    50    28    48    1
    51    28    49    1
    52    29    30    1
    53    29    50    1
    54    29    51    1
    55    30    52    1
    56    30    53    1
@<TRIPOS>SUBSTRUCTURE
     1 ZINC000962855438        1 TEMP              0 ****  ****    0 ROOT


##########                                Name:    ZINC001058772245
##########                DOCK_Rotatable_Bonds:                  11
##########                         Heavy_Atoms:                  22
##########                    Molecular_Weight:             335.375
##########                DOCK_Rotatable_Bonds:                  11
##########                       Formal_Charge:          0.00999964
##########                     HBond_Acceptors:                   9
##########                        HBond_Donors:                   2
##########                         Heavy_Atoms:                  22
##########                          Grid_Score:          -28.347481
##########                     Grid_vdw_energy:          -25.640364
##########                      Grid_es_energy:           -2.707116
##########           Internal_energy_repulsive:           65.156204

@<TRIPOS>MOLECULE
ZINC001058772245
 41 41 1 0 0
SMALL
USER_CHARGES


@<TRIPOS>ATOM
      1 C1         -3.0304    3.6320   54.2564 C.3     1  ZINC001058772245   -0.1700
      2 C2         -1.9398    4.5928   53.7786 C.3     1  ZINC001058772245   -0.1400
      3 C3         -0.7311    4.4969   54.7117 C.3     1  ZINC001058772245   -0.1500
      4 C4         -1.5236    4.2239   52.3780 C.2     1  ZINC001058772245    0.5300
      5 O5         -0.3886    3.8564   52.1596 O.2     1  ZINC001058772245   -0.5200
      6 N6         -2.4127    4.3021   51.3681 N.am    1  ZINC001058772245   -0.5900
      7 C7         -3.7837    4.7458   51.6320 C.3     1  ZINC001058772245    0.0800
      8 C8         -4.1126    5.9442   50.7394 C.3     1  ZINC001058772245    0.0400
      9 O9         -5.3577    6.5146   51.1474 O.3     1  ZINC001058772245   -0.5700
     10 C10        -2.0081    3.9434   50.0066 C.3     1  ZINC001058772245    0.1100
     11 C11        -1.7529    2.4367   49.9306 C.3     1  ZINC001058772245    0.1000
     12 N12        -2.0273    1.9629   48.5718 N.am    1  ZINC001058772245   -0.7100
     13 C13        -1.6728    0.7142   48.2091 C.2     1  ZINC001058772245    0.6000
     14 O14        -1.1264   -0.0199   49.0104 O.2     1  ZINC001058772245   -0.5300
     15 C15        -1.9471    0.2385   46.8426 C.2     1  ZINC001058772245    0.0000
     16 C16        -1.9705    1.0561   45.7660 C.2     1  ZINC001058772245   -0.2200
     17 S17        -2.3206    0.1265   44.3748 S.3     1  ZINC001058772245    0.2300
     18 C18        -2.4155   -1.2992   45.3100 C.2     1  ZINC001058772245    0.0000
     19 N19        -2.1904   -1.0418   46.5503 N.2     1  ZINC001058772245   -0.4400
     20 C20        -2.4803    6.0241   53.7897 C.3     1  ZINC001058772245    0.2900
     21 F21        -3.6932    6.0591   54.4861 F       1  ZINC001058772245   -0.1900
     22 F22        -1.5571    6.8664   54.4185 F       1  ZINC001058772245   -0.2000
     23 H23        -3.5314    4.0551   55.1271 H       1  ZINC001058772245    0.0800
     24 H24        -3.7564    3.4803   53.4576 H       1  ZINC001058772245    0.0700
     25 H25        -2.5805    2.6761   54.5248 H       1  ZINC001058772245    0.0900
     26 H26        -0.1895    3.5726   54.5110 H       1  ZINC001058772245    0.0800
     27 H27        -0.0722    5.3484   54.5415 H       1  ZINC001058772245    0.0700
     28 H28        -1.0705    4.5015   55.7475 H       1  ZINC001058772245    0.0900
     29 H29        -4.4766    3.9320   51.4176 H       1  ZINC001058772245    0.0900
     30 H30        -3.8767    5.0358   52.6786 H       1  ZINC001058772245    0.1200
     31 H31        -3.3240    6.6912   50.8290 H       1  ZINC001058772245    0.0600
     32 H32        -4.1859    5.6157   49.7027 H       1  ZINC001058772245    0.0700
     33 H33        -6.1017    5.8977   51.1167 H       1  ZINC001058772245    0.3800
     34 H34        -2.8009    4.2132   49.3089 H       1  ZINC001058772245    0.1000
     35 H35        -1.0960    4.4800   49.7453 H       1  ZINC001058772245    0.0900
     36 H36        -0.7129    2.2311   50.1839 H       1  ZINC001058772245    0.0700
     37 H37        -2.4070    1.9215   50.6340 H       1  ZINC001058772245    0.0700
     38 H38        -2.4641    2.5478   47.9331 H       1  ZINC001058772245    0.4100
     39 H39        -1.7965    2.1218   45.7822 H       1  ZINC001058772245    0.1900
     40 H40        -2.6310   -2.2809   44.9149 H       1  ZINC001058772245    0.2100
     41 H41        -2.6398    6.3603   52.7652 H       1  ZINC001058772245    0.1200
@<TRIPOS>BOND
     1     1     2    1
     2     1    23    1
     3     1    24    1
     4     1    25    1
     5     2     3    1
     6     2     4    1
     7     2    20    1
     8     3    26    1
     9     3    27    1
    10     3    28    1
    11     4     5    2
    12     4     6   am
    13     6     7    1
    14     6    10    1
    15     7     8    1
    16     7    29    1
    17     7    30    1
    18     8     9    1
    19     8    31    1
    20     8    32    1
    21     9    33    1
    22    10    11    1
    23    10    34    1
    24    10    35    1
    25    11    12    1
    26    11    36    1
    27    11    37    1
    28    12    13   am
    29    12    38    1
    30    13    14    2
    31    13    15    1
    32    15    19    1
    33    15    16    2
    34    16    17    1
    35    16    39    1
    36    17    18    1
    37    18    19    2
    38    18    40    1
    39    20    21    1
    40    20    22    1
    41    20    41    1
@<TRIPOS>SUBSTRUCTURE
     1 ZINC001058772245        1 TEMP              0 ****  ****    0 ROOT


##########                                Name:    ZINC000176150038
##########                DOCK_Rotatable_Bonds:                   4
##########                         Heavy_Atoms:                  23
##########                    Molecular_Weight:             333.712
##########                DOCK_Rotatable_Bonds:                   4
##########                       Formal_Charge:        -2.23517e-07
##########                     HBond_Acceptors:                  10
##########                        HBond_Donors:                   1
##########                         Heavy_Atoms:                  23
##########                          Grid_Score:          -28.333458
##########                     Grid_vdw_energy:          -28.608902
##########                      Grid_es_energy:            0.275445
##########           Internal_energy_repulsive:           14.285272

@<TRIPOS>MOLECULE
ZINC000176150038
 32 34 1 0 0
SMALL
USER_CHARGES


@<TRIPOS>ATOM
      1 C1         -1.9597   -1.5416   47.6931 C.3     1  ZINC000176150038   -0.0900
      2 C2         -2.0508   -0.5883   46.5295 C.2     1  ZINC000176150038    0.2600
      3 N3         -2.5332   -0.8559   45.3441 N.2     1  ZINC000176150038   -0.3300
      4 N4         -2.4646    0.1768   44.5837 N.2     1  ZINC000176150038   -0.0300
      5 N5         -1.9395    1.1661   45.2226 N.2     1  ZINC000176150038   -0.0700
      6 N6         -1.6547    0.7029   46.5192 N.pl3   1  ZINC000176150038   -0.3300
      7 C7         -1.0758    1.4248   47.5739 C.ar    1  ZINC000176150038    0.1400
      8 C8          0.2803    1.7204   47.5507 C.ar    1  ZINC000176150038   -0.1000
      9 C9          0.8524    2.4318   48.5885 C.ar    1  ZINC000176150038   -0.1100
     10 C10         0.0758    2.8513   49.6531 C.ar    1  ZINC000176150038    0.1000
     11 F11         0.6374    3.5469   50.6660 F       1  ZINC000176150038   -0.1200
     12 C12        -1.2840    2.5575   49.6810 C.ar    1  ZINC000176150038    0.1300
     13 N13        -2.0705    2.9817   50.7580 N.am    1  ZINC000176150038   -0.6500
     14 C14        -2.7716    4.1293   50.6695 C.2     1  ZINC000176150038    0.5700
     15 O15        -2.7208    4.7956   49.6547 O.2     1  ZINC000176150038   -0.4800
     16 C16        -3.6052    4.5789   51.8110 C.ar    1  ZINC000176150038    0.1400
     17 N17        -3.5584    3.9385   52.9771 N.ar    1  ZINC000176150038   -0.4800
     18 C18        -4.2958    4.3344   53.9919 C.ar    1  ZINC000176150038    0.3000
     19 N19        -5.1061    5.3714   53.9036 N.ar    1  ZINC000176150038   -0.4800
     20 C20        -5.2111    6.0613   52.7811 C.ar    1  ZINC000176150038    0.1700
     21 C21        -4.4485    5.6852   51.6825 C.ar    1  ZINC000176150038   -0.1000
     22 Cl22       -4.5500    6.5593   50.1860 Cl      1  ZINC000176150038    0.0100
     23 C23        -1.8598    1.8482   48.6374 C.ar    1  ZINC000176150038   -0.0800
     24 H24        -2.8737   -1.4818   48.2841 H       1  ZINC000176150038    0.1100
     25 H25        -1.8335   -2.5582   47.3208 H       1  ZINC000176150038    0.1100
     26 H26        -1.1061   -1.2741   48.3159 H       1  ZINC000176150038    0.0900
     27 H27         0.8893    1.3937   46.7208 H       1  ZINC000176150038    0.1500
     28 H28         1.9078    2.6601   48.5682 H       1  ZINC000176150038    0.1600
     29 H29        -2.1111    2.4497   51.5680 H       1  ZINC000176150038    0.4300
     30 H30        -4.2362    3.7941   54.9251 H       1  ZINC000176150038    0.2200
     31 H31        -5.8779    6.9087   52.7200 H       1  ZINC000176150038    0.1900
     32 H32        -2.9150    1.6189   48.6565 H       1  ZINC000176150038    0.1700
@<TRIPOS>BOND
     1     1     2    1
     2     1    24    1
     3     1    25    1
     4     1    26    1
     5     2     6    1
     6     2     3    2
     7     3     4    1
     8     4     5    2
     9     5     6    1
    10     6     7    1
    11     7    23   ar
    12     7     8   ar
    13     8     9   ar
    14     8    27    1
    15     9    10   ar
    16     9    28    1
    17    10    11    1
    18    10    12   ar
    19    12    13    1
    20    12    23   ar
    21    13    14   am
    22    13    29    1
    23    14    15    2
    24    14    16    1
    25    16    21   ar
    26    16    17   ar
    27    17    18   ar
    28    18    19   ar
    29    18    30    1
    30    19    20   ar
    31    20    21   ar
    32    20    31    1
    33    21    22    1
    34    23    32    1
@<TRIPOS>SUBSTRUCTURE
     1 ZINC000176150038        1 TEMP              0 ****  ****    0 ROOT


##########                                Name:    ZINC001341052241
##########                DOCK_Rotatable_Bonds:                   7
##########                         Heavy_Atoms:                  24
##########                    Molecular_Weight:             336.478
##########                DOCK_Rotatable_Bonds:                   7
##########                       Formal_Charge:         5.96046e-08
##########                     HBond_Acceptors:                   6
##########                        HBond_Donors:                   0
##########                         Heavy_Atoms:                  24
##########                          Grid_Score:          -28.316391
##########                     Grid_vdw_energy:          -27.652842
##########                      Grid_es_energy:           -0.663550
##########           Internal_energy_repulsive:            8.577623

@<TRIPOS>MOLECULE
ZINC001341052241
 56 58 1 0 0
SMALL
USER_CHARGES


@<TRIPOS>ATOM
      1 C1        -12.9598   -3.4230   57.9829 C.3     1  ZINC001341052241   -0.1700
      2 C2        -12.2502   -2.5684   56.9308 C.3     1  ZINC001341052241    0.1100
      3 N3        -12.5634   -1.1554   57.1573 N.pl3   1  ZINC001341052241   -0.4500
      4 C4        -13.4232   -0.3744   56.4357 C.2     1  ZINC001341052241    0.1800
      5 C5        -14.2382   -0.8083   55.2446 C.3     1  ZINC001341052241    0.1500
      6 O6        -13.7078   -0.2090   54.0607 O.3     1  ZINC001341052241   -0.3700
      7 C7        -12.6469   -0.9530   53.4580 C.3     1  ZINC001341052241    0.0900
      8 C8        -11.3086   -0.2852   53.7802 C.3     1  ZINC001341052241   -0.1400
      9 C9        -10.1728   -1.0817   53.1349 C.3     1  ZINC001341052241   -0.1200
     10 C10       -10.3727   -1.1178   51.6184 C.3     1  ZINC001341052241   -0.1200
     11 C11       -11.7111   -1.7856   51.2962 C.3     1  ZINC001341052241   -0.1200
     12 C12       -12.8469   -0.9890   51.9415 C.3     1  ZINC001341052241   -0.1200
     13 N13       -13.4079    0.8141   56.9693 N.2     1  ZINC001341052241   -0.2600
     14 N14       -12.6075    0.8357   57.9746 N.2     1  ZINC001341052241   -0.3100
     15 C15       -12.0574   -0.3453   58.1318 C.2     1  ZINC001341052241    0.3500
     16 N16       -11.1404   -0.7037   59.1069 N.3     1  ZINC001341052241   -0.4600
     17 C17        -9.9149    0.0978   58.9968 C.3     1  ZINC001341052241    0.0700
     18 C18        -8.8732   -0.4213   59.9907 C.3     1  ZINC001341052241   -0.1100
     19 C19        -9.4394   -0.3297   61.4103 C.3     1  ZINC001341052241   -0.0900
     20 C20        -8.4263   -0.9038   62.4028 C.3     1  ZINC001341052241    0.0700
     21 O21        -8.8655   -0.6415   63.7372 O.3     1  ZINC001341052241   -0.3900
     22 C22        -7.8831   -0.0068   64.5582 C.3     1  ZINC001341052241    0.0300
     23 C23       -10.7407   -1.1332   61.4852 C.3     1  ZINC001341052241   -0.1100
     24 C24       -11.7282   -0.5935   60.4481 C.3     1  ZINC001341052241    0.0700
     25 H25       -12.6292   -3.1237   58.9774 H       1  ZINC001341052241    0.0600
     26 H26       -14.0373   -3.2808   57.9001 H       1  ZINC001341052241    0.0700
     27 H27       -12.7185   -4.4736   57.8207 H       1  ZINC001341052241    0.0800
     28 H28       -12.5886   -2.8608   55.9368 H       1  ZINC001341052241    0.0900
     29 H29       -11.1733   -2.7185   57.0068 H       1  ZINC001341052241    0.1000
     30 H30       -14.1971   -1.8936   55.1521 H       1  ZINC001341052241    0.0900
     31 H31       -15.2732   -0.4939   55.3787 H       1  ZINC001341052241    0.0700
     32 H32       -12.6489   -1.9705   53.8490 H       1  ZINC001341052241    0.0600
     33 H33       -11.3067    0.7322   53.3892 H       1  ZINC001341052241    0.0700
     34 H34       -11.1662   -0.2596   54.8605 H       1  ZINC001341052241    0.0700
     35 H35       -10.1747   -2.0992   53.5259 H       1  ZINC001341052241    0.0600
     36 H36        -9.2193   -0.6060   53.3644 H       1  ZINC001341052241    0.0700
     37 H37        -9.5635   -1.6852   51.1586 H       1  ZINC001341052241    0.0600
     38 H38       -10.3709   -0.1004   51.2274 H       1  ZINC001341052241    0.0600
     39 H39       -11.7129   -2.8030   51.6872 H       1  ZINC001341052241    0.0600
     40 H40       -11.8535   -1.8112   50.2158 H       1  ZINC001341052241    0.0700
     41 H41       -13.8004   -1.4648   51.7120 H       1  ZINC001341052241    0.0700
     42 H42       -12.8450    0.0284   51.5504 H       1  ZINC001341052241    0.0700
     43 H43       -10.1415    1.1404   59.2197 H       1  ZINC001341052241    0.0600
     44 H44        -9.5202    0.0207   57.9837 H       1  ZINC001341052241    0.0800
     45 H45        -7.9694    0.1836   59.9196 H       1  ZINC001341052241    0.0800
     46 H46        -8.6358   -1.4598   59.7598 H       1  ZINC001341052241    0.0800
     47 H47        -9.6395    0.7132   61.6562 H       1  ZINC001341052241    0.0800
     48 H48        -7.4549   -0.4364   62.2417 H       1  ZINC001341052241    0.0500
     49 H49        -8.3409   -1.9801   62.2534 H       1  ZINC001341052241    0.0500
     50 H50        -7.0019   -0.6444   64.6290 H       1  ZINC001341052241    0.0400
     51 H51        -8.2936    0.1577   65.5545 H       1  ZINC001341052241    0.0900
     52 H52        -7.6046    0.9503   64.1173 H       1  ZINC001341052241    0.0400
     53 H53       -10.5327   -2.1830   61.2779 H       1  ZINC001341052241    0.0700
     54 H54       -11.1710   -1.0369   62.4820 H       1  ZINC001341052241    0.0800
     55 H55       -11.9464    0.4523   60.6642 H       1  ZINC001341052241    0.0600
     56 H56       -12.6507   -1.1727   60.4891 H       1  ZINC001341052241    0.0800
@<TRIPOS>BOND
     1     1     2    1
     2     1    25    1
     3     1    26    1
     4     1    27    1
     5     2     3    1
     6     2    28    1
     7     2    29    1
     8     3    15    1
     9     3     4    1
    10     4     5    1
    11     4    13    2
    12     5     6    1
    13     5    30    1
    14     5    31    1
    15     6     7    1
    16     7    12    1
    17     7     8    1
    18     7    32    1
    19     8     9    1
    20     8    33    1
    21     8    34    1
    22     9    10    1
    23     9    35    1
    24     9    36    1
    25    10    11    1
    26    10    37    1
    27    10    38    1
    28    11    12    1
    29    11    39    1
    30    11    40    1
    31    12    41    1
    32    12    42    1
    33    13    14    1
    34    14    15    2
    35    15    16    1
    36    16    24    1
    37    16    17    1
    38    17    18    1
    39    17    43    1
    40    17    44    1
    41    18    19    1
    42    18    45    1
    43    18    46    1
    44    19    20    1
    45    19    23    1
    46    19    47    1
    47    20    21    1
    48    20    48    1
    49    20    49    1
    50    21    22    1
    51    22    50    1
    52    22    51    1
    53    22    52    1
    54    23    24    1
    55    23    53    1
    56    23    54    1
    57    24    55    1
    58    24    56    1
@<TRIPOS>SUBSTRUCTURE
     1 ZINC001341052241        1 TEMP              0 ****  ****    0 ROOT


##########                                Name:    ZINC000417533280
##########                DOCK_Rotatable_Bonds:                   9
##########                         Heavy_Atoms:                  26
##########                    Molecular_Weight:             367.439
##########                DOCK_Rotatable_Bonds:                   9
##########                       Formal_Charge:         -0.00999999
##########                     HBond_Acceptors:                   7
##########                        HBond_Donors:                   2
##########                         Heavy_Atoms:                  26
##########                          Grid_Score:          -28.308937
##########                     Grid_vdw_energy:          -24.290157
##########                      Grid_es_energy:           -4.018781
##########           Internal_energy_repulsive:           16.504654

@<TRIPOS>MOLECULE
ZINC000417533280
 53 54 1 0 0
SMALL
USER_CHARGES


@<TRIPOS>ATOM
      1 C1         -0.9725    1.9587   65.7767 C.3     1  ZINC000417533280   -0.1600
      2 C2         -1.0864    2.9547   64.6210 C.3     1  ZINC000417533280   -0.1200
      3 C3         -2.5614    3.2660   64.3595 C.3     1  ZINC000417533280   -0.1200
      4 C4         -3.1417    4.0265   65.5536 C.3     1  ZINC000417533280   -0.1300
      5 C5         -4.5250    4.5692   65.1891 C.3     1  ZINC000417533280    0.1200
      6 N6         -5.3994    3.4586   64.8043 N.am    1  ZINC000417533280   -0.7300
      7 C7         -6.0222    2.7313   65.7527 C.2     1  ZINC000417533280    0.5200
      8 O8         -5.8598    2.9972   66.9248 O.2     1  ZINC000417533280   -0.5400
      9 C9         -6.9204    1.5877   65.3568 C.3     1  ZINC000417533280   -0.1100
     10 C10        -8.3306    2.1171   65.0862 C.3     1  ZINC000417533280   -0.1300
     11 C11        -9.2488    0.9475   64.7178 C.3     1  ZINC000417533280    0.1300
     12 N12        -8.6529    0.2150   63.5921 N.am    1  ZINC000417533280   -0.6200
     13 C13        -9.3633   -0.0163   62.4703 C.2     1  ZINC000417533280    0.7100
     14 O14       -10.5085    0.3825   62.3830 O.2     1  ZINC000417533280   -0.5600
     15 N15        -8.8041   -0.6896   61.4454 N.am    1  ZINC000417533280   -0.6800
     16 C16        -9.5423   -0.9300   60.2797 C.ar    1  ZINC000417533280    0.1900
     17 C17       -10.4811   -1.9522   60.2502 C.ar    1  ZINC000417533280   -0.1100
     18 C18       -11.2093   -2.1884   59.0999 C.ar    1  ZINC000417533280   -0.1100
     19 C19       -11.0038   -1.4070   57.9765 C.ar    1  ZINC000417533280    0.0500
     20 F20       -11.7172   -1.6395   56.8530 F       1  ZINC000417533280   -0.1300
     21 C21       -10.0665   -0.3848   58.0029 C.ar    1  ZINC000417533280    0.0900
     22 F22        -9.8671    0.3773   56.9054 F       1  ZINC000417533280   -0.1200
     23 C23        -9.3399   -0.1425   59.1543 C.ar    1  ZINC000417533280   -0.1300
     24 C24        -8.3217    0.9681   59.1840 C.3     1  ZINC000417533280   -0.1200
     25 C25        -7.2679   -0.2602   63.7124 C.3     1  ZINC000417533280    0.1100
     26 C26        -6.3719    0.9230   64.0922 C.3     1  ZINC000417533280   -0.1200
     27 H27        -1.4174    2.3901   66.6735 H       1  ZINC000417533280    0.0500
     28 H28        -1.4973    1.0393   65.5171 H       1  ZINC000417533280    0.0500
     29 H29         0.0783    1.7369   65.9631 H       1  ZINC000417533280    0.0500
     30 H30        -0.5616    3.8741   64.8806 H       1  ZINC000417533280    0.0600
     31 H31        -0.6415    2.5232   63.7243 H       1  ZINC000417533280    0.0600
     32 H32        -2.6500    3.8773   63.4615 H       1  ZINC000417533280    0.0700
     33 H33        -3.1102    2.3345   64.2206 H       1  ZINC000417533280    0.0700
     34 H34        -3.2287    3.3527   66.4059 H       1  ZINC000417533280    0.0700
     35 H35        -2.4825    4.8554   65.8115 H       1  ZINC000417533280    0.0700
     36 H36        -4.9509    5.0857   66.0494 H       1  ZINC000417533280    0.0700
     37 H37        -4.4339    5.2657   64.3556 H       1  ZINC000417533280    0.0700
     38 H38        -5.5303    3.2467   63.8667 H       1  ZINC000417533280    0.4000
     39 H39        -6.9558    0.8572   66.1649 H       1  ZINC000417533280    0.1000
     40 H40        -8.7114    2.6110   65.9801 H       1  ZINC000417533280    0.0800
     41 H41        -8.2998    2.8294   64.2616 H       1  ZINC000417533280    0.0800
     42 H42        -9.3525    0.2807   65.5738 H       1  ZINC000417533280    0.0700
     43 H43       -10.2280    1.3288   64.4283 H       1  ZINC000417533280    0.1000
     44 H44        -7.8904   -1.0077   61.5152 H       1  ZINC000417533280    0.4100
     45 H45       -10.6420   -2.5630   61.1262 H       1  ZINC000417533280    0.1700
     46 H46       -11.9392   -2.9841   59.0774 H       1  ZINC000417533280    0.1500
     47 H47        -8.8005    1.8914   59.5102 H       1  ZINC000417533280    0.0800
     48 H48        -7.5216    0.7091   59.8774 H       1  ZINC000417533280    0.0700
     49 H49        -7.9066    1.1072   58.1858 H       1  ZINC000417533280    0.0800
     50 H50        -7.2100   -1.0255   64.4864 H       1  ZINC000417533280    0.0800
     51 H51        -6.9401   -0.6758   62.7595 H       1  ZINC000417533280    0.0800
     52 H52        -6.3596    1.6463   63.2768 H       1  ZINC000417533280    0.0800
     53 H53        -5.3587    0.5669   64.2785 H       1  ZINC000417533280    0.0900
@<TRIPOS>BOND
     1     1     2    1
     2     1    27    1
     3     1    28    1
     4     1    29    1
     5     2     3    1
     6     2    30    1
     7     2    31    1
     8     3     4    1
     9     3    32    1
    10     3    33    1
    11     4     5    1
    12     4    34    1
    13     4    35    1
    14     5     6    1
    15     5    36    1
    16     5    37    1
    17     6     7   am
    18     6    38    1
    19     7     8    2
    20     7     9    1
    21     9    26    1
    22     9    10    1
    23     9    39    1
    24    10    11    1
    25    10    40    1
    26    10    41    1
    27    11    12    1
    28    11    42    1
    29    11    43    1
    30    12    13   am
    31    12    25    1
    32    13    14    2
    33    13    15   am
    34    15    16    1
    35    15    44    1
    36    16    23   ar
    37    16    17   ar
    38    17    18   ar
    39    17    45    1
    40    18    19   ar
    41    18    46    1
    42    19    20    1
    43    19    21   ar
    44    21    22    1
    45    21    23   ar
    46    23    24    1
    47    24    47    1
    48    24    48    1
    49    24    49    1
    50    25    26    1
    51    25    50    1
    52    25    51    1
    53    26    52    1
    54    26    53    1
@<TRIPOS>SUBSTRUCTURE
     1 ZINC000417533280        1 TEMP              0 ****  ****    0 ROOT


##########                                Name:    ZINC000899027326
##########                DOCK_Rotatable_Bonds:                   5
##########                         Heavy_Atoms:                  22
##########                    Molecular_Weight:             346.169
##########                DOCK_Rotatable_Bonds:                   5
##########                       Formal_Charge:           0.0300005
##########                     HBond_Acceptors:                   9
##########                        HBond_Donors:                   1
##########                         Heavy_Atoms:                  22
##########                          Grid_Score:          -28.301355
##########                     Grid_vdw_energy:          -27.681456
##########                      Grid_es_energy:           -0.619900
##########           Internal_energy_repulsive:           19.055998

@<TRIPOS>MOLECULE
ZINC000899027326
 35 36 1 0 0
SMALL
USER_CHARGES


@<TRIPOS>ATOM
      1 C1          0.6547    0.4097   47.0255 C.3     1  ZINC000899027326   -0.1500
      2 C2          0.0525    0.5186   48.4278 C.3     1  ZINC000899027326    0.1100
      3 H3          0.7833    0.2255   49.1816 H       1  ZINC000899027326    0.1400
      4 C4         -0.4451    1.9269   48.6867 C.2     1  ZINC000899027326    0.5300
      5 O5          0.2128    2.9451   48.6994 O.2     1  ZINC000899027326   -0.4500
      6 N6         -1.7709    1.8115   48.8990 N.am    1  ZINC000899027326   -0.3700
      7 N7         -2.6202    2.8906   49.1766 N.am    1  ZINC000899027326   -0.5000
      8 C8         -2.7184    3.3648   50.4344 C.2     1  ZINC000899027326    0.5200
      9 O9         -2.0704    2.8583   51.3256 O.2     1  ZINC000899027326   -0.4800
     10 C10        -3.6333    4.5244   50.7332 C.3     1  ZINC000899027326    0.0500
     11 O11        -4.7911    4.0517   51.4247 O.3     1  ZINC000899027326   -0.2700
     12 C12        -4.6596    3.8115   52.7562 C.ar    1  ZINC000899027326    0.1400
     13 C13        -3.4716    4.1169   53.4027 C.ar    1  ZINC000899027326   -0.1900
     14 C14        -3.3396    3.8720   54.7564 C.ar    1  ZINC000899027326   -0.0600
     15 C15        -4.3915    3.3224   55.4670 C.ar    1  ZINC000899027326   -0.0600
     16 Cl16       -4.2227    3.0165   57.1675 Cl      1  ZINC000899027326   -0.0500
     17 C17        -5.5784    3.0166   54.8244 C.ar    1  ZINC000899027326   -0.0600
     18 C18        -5.7166    3.2652   53.4719 C.ar    1  ZINC000899027326   -0.0500
     19 Cl19       -7.2055    2.8816   52.6657 Cl      1  ZINC000899027326   -0.0300
     20 C20        -2.1759    0.5394   48.8112 C.2     1  ZINC000899027326    0.7000
     21 O21        -3.3284    0.1853   48.9645 O.2     1  ZINC000899027326   -0.5200
     22 N22        -1.1628   -0.3070   48.5356 N.am    1  ZINC000899027326   -0.6200
     23 C23        -1.2558   -1.7598   48.3719 C.3     1  ZINC000899027326    0.1200
     24 H24        -0.0855    0.7182   46.2872 H       1  ZINC000899027326    0.0700
     25 H25         1.5297    1.0558   46.9547 H       1  ZINC000899027326    0.0900
     26 H26         0.9489   -0.6225   46.8356 H       1  ZINC000899027326    0.0900
     27 H27        -3.1376    3.2965   48.4635 H       1  ZINC000899027326    0.4300
     28 H28        -3.1093    5.2497   51.3555 H       1  ZINC000899027326    0.1100
     29 H29        -3.9361    4.9983   49.7994 H       1  ZINC000899027326    0.1100
     30 H30        -2.6497    4.5457   52.8486 H       1  ZINC000899027326    0.1500
     31 H31        -2.4142    4.1095   55.2598 H       1  ZINC000899027326    0.1500
     32 H32        -6.3986    2.5876   55.3809 H       1  ZINC000899027326    0.1500
     33 H33        -2.2902   -2.0753   48.5082 H       1  ZINC000899027326    0.0900
     34 H34        -0.9208   -2.0350   47.3719 H       1  ZINC000899027326    0.0700
     35 H35        -0.6256   -2.2501   49.1139 H       1  ZINC000899027326    0.0700
@<TRIPOS>BOND
     1     1     2    1
     2     1    24    1
     3     1    25    1
     4     1    26    1
     5     2     3    1
     6     2    22    1
     7     2     4    1
     8     4     5    2
     9     4     6   am
    10     6     7    1
    11     6    20   am
    12     7     8   am
    13     7    27    1
    14     8     9    2
    15     8    10    1
    16    10    11    1
    17    10    28    1
    18    10    29    1
    19    11    12    1
    20    12    18   ar
    21    12    13   ar
    22    13    14   ar
    23    13    30    1
    24    14    15   ar
    25    14    31    1
    26    15    16    1
    27    15    17   ar
    28    17    18   ar
    29    17    32    1
    30    18    19    1
    31    20    21    2
    32    20    22   am
    33    22    23    1
    34    23    33    1
    35    23    34    1
    36    23    35    1
@<TRIPOS>SUBSTRUCTURE
     1 ZINC000899027326        1 TEMP              0 ****  ****    0 ROOT


##########                                Name:    ZINC000937331732
##########                DOCK_Rotatable_Bonds:                   6
##########                         Heavy_Atoms:                  24
##########                    Molecular_Weight:              333.35
##########                DOCK_Rotatable_Bonds:                   6
##########                       Formal_Charge:          -0.0299999
##########                     HBond_Acceptors:                  10
##########                        HBond_Donors:                   1
##########                         Heavy_Atoms:                  24
##########                          Grid_Score:          -28.299747
##########                     Grid_vdw_energy:          -27.460865
##########                      Grid_es_energy:           -0.838882
##########           Internal_energy_repulsive:           29.034529

@<TRIPOS>MOLECULE
ZINC000937331732
 43 45 1 0 0
SMALL
USER_CHARGES


@<TRIPOS>ATOM
      1 C1          0.8921   -1.0481   47.8492 C.3     1  ZINC000937331732    0.0600
      2 N2          0.3515    0.1591   47.2193 N.am    1  ZINC000937331732   -0.6100
      3 C3          1.1665    0.9826   46.5309 C.2     1  ZINC000937331732    0.5000
      4 O4          2.3478    0.7251   46.4343 O.2     1  ZINC000937331732   -0.5200
      5 C5          0.6103    2.2234   45.8813 C.3     1  ZINC000937331732    0.1500
      6 N6          1.0999    2.3147   44.5035 N.am    1  ZINC000937331732   -0.4400
      7 N7          0.5743    1.6466   43.3890 N.2     1  ZINC000937331732   -0.2800
      8 C8          1.2729    1.9810   42.3524 C.2     1  ZINC000937331732    0.2600
      9 N9          2.2552    2.8578   42.7438 N.am    1  ZINC000937331732   -0.5600
     10 C10         3.2562    3.4712   41.8674 C.3     1  ZINC000937331732    0.1000
     11 C11         2.1370    3.0620   44.0711 C.2     1  ZINC000937331732    0.6500
     12 O12         2.8416    3.7824   44.7556 O.2     1  ZINC000937331732   -0.5500
     13 C13        -1.0751    0.4709   47.3375 C.3     1  ZINC000937331732    0.1300
     14 H14        -1.5276    0.5796   46.3519 H       1  ZINC000937331732    0.1200
     15 C15        -1.8090   -0.6200   48.1614 C.3     1  ZINC000937331732   -0.1500
     16 C16        -3.0094    0.1760   48.7316 C.3     1  ZINC000937331732    0.1000
     17 N17        -2.4673    1.5142   49.0296 N.am    1  ZINC000937331732   -0.6000
     18 C18        -2.9700    2.3828   49.9293 C.2     1  ZINC000937331732    0.6200
     19 O19        -3.9543    2.0847   50.5781 O.2     1  ZINC000937331732   -0.5400
     20 C20        -2.3266    3.6944   50.1266 C.2     1  ZINC000937331732    0.1400
     21 N21        -1.2613    4.1341   49.4908 N.2     1  ZINC000937331732   -0.4400
     22 C22        -0.9679    5.3570   49.9270 C.2     1  ZINC000937331732   -0.0300
     23 C23        -1.8776    5.7033   50.8705 C.2     1  ZINC000937331732   -0.0200
     24 N24        -2.7372    4.6648   50.9970 N.pl3   1  ZINC000937331732   -0.5200
     25 C25        -1.2869    1.7468   48.1794 C.3     1  ZINC000937331732    0.1000
     26 H26         1.2137   -0.8152   48.8644 H       1  ZINC000937331732    0.0700
     27 H27         0.1213   -1.8182   47.8800 H       1  ZINC000937331732    0.0800
     28 H28         1.7435   -1.4090   47.2721 H       1  ZINC000937331732    0.0800
     29 H29        -0.4786    2.1745   45.8774 H       1  ZINC000937331732    0.1300
     30 H30         0.9326    3.1018   46.4403 H       1  ZINC000937331732    0.1300
     31 H31         1.1106    1.6283   41.3446 H       1  ZINC000937331732    0.2300
     32 H32         3.1052    3.1248   40.8451 H       1  ZINC000937331732    0.1000
     33 H33         3.1537    4.5559   41.9024 H       1  ZINC000937331732    0.0800
     34 H34         4.2542    3.1895   42.2028 H       1  ZINC000937331732    0.0800
     35 H35        -2.1487   -1.4323   47.5187 H       1  ZINC000937331732    0.0900
     36 H36        -1.1742   -0.9974   48.9630 H       1  ZINC000937331732    0.0800
     37 H37        -3.8052    0.2455   47.9900 H       1  ZINC000937331732    0.0800
     38 H38        -3.3785   -0.2952   49.6425 H       1  ZINC000937331732    0.1100
     39 H39        -0.1454    5.9688   49.5872 H       1  ZINC000937331732    0.1800
     40 H40        -1.9124    6.6345   51.4164 H       1  ZINC000937331732    0.1900
     41 H41        -3.4980    4.6164   51.5967 H       1  ZINC000937331732    0.4300
     42 H42        -0.4110    1.9268   48.8026 H       1  ZINC000937331732    0.0800
     43 H43        -1.4627    2.6023   47.5272 H       1  ZINC000937331732    0.0800
@<TRIPOS>BOND
     1     1     2    1
     2     1    26    1
     3     1    27    1
     4     1    28    1
     5     2     3   am
     6     2    13    1
     7     3     4    2
     8     3     5    1
     9     5     6    1
    10     5    29    1
    11     5    30    1
    12     6    11   am
    13     6     7    1
    14     7     8    2
    15     8     9    1
    16     8    31    1
    17     9    10    1
    18     9    11   am
    19    10    32    1
    20    10    33    1
    21    10    34    1
    22    11    12    2
    23    13    14    1
    24    13    25    1
    25    13    15    1
    26    15    16    1
    27    15    35    1
    28    15    36    1
    29    16    17    1
    30    16    37    1
    31    16    38    1
    32    17    18   am
    33    17    25    1
    34    18    19    2
    35    18    20    1
    36    20    24    1
    37    20    21    2
    38    21    22    1
    39    22    23    2
    40    22    39    1
    41    23    24    1
    42    23    40    1
    43    24    41    1
    44    25    42    1
    45    25    43    1
@<TRIPOS>SUBSTRUCTURE
     1 ZINC000937331732        1 TEMP              0 ****  ****    0 ROOT


##########                                Name:    ZINC000587344575
##########                DOCK_Rotatable_Bonds:                   7
##########                         Heavy_Atoms:                  30
##########                    Molecular_Weight:             408.475
##########                DOCK_Rotatable_Bonds:                   7
##########                       Formal_Charge:          -0.0100002
##########                     HBond_Acceptors:                   7
##########                        HBond_Donors:                   2
##########                         Heavy_Atoms:                  30
##########                          Grid_Score:          -28.276705
##########                     Grid_vdw_energy:          -26.730831
##########                      Grid_es_energy:           -1.545874
##########           Internal_energy_repulsive:           18.864281

@<TRIPOS>MOLECULE
ZINC000587344575
 55 57 1 0 0
SMALL
USER_CHARGES


@<TRIPOS>ATOM
      1 C1          1.5190    4.1955   48.9457 C.3     1  ZINC000587344575   -0.1200
      2 C2          0.1299    4.0157   49.5017 C.ar    1  ZINC000587344575    0.0000
      3 C3         -0.1547    4.4161   50.7875 C.ar    1  ZINC000587344575   -0.1600
      4 C4         -1.4372    4.2509   51.3016 C.ar    1  ZINC000587344575    0.1800
      5 N5         -1.7222    4.6580   52.6044 N.am    1  ZINC000587344575   -0.6700
      6 C6         -1.5198    3.8124   53.6342 C.2     1  ZINC000587344575    0.5200
      7 O7         -1.0898    2.6974   53.4276 O.2     1  ZINC000587344575   -0.5000
      8 C8         -1.8279    4.2524   55.0423 C.3     1  ZINC000587344575   -0.1200
      9 H9         -1.4328    5.2525   55.2204 H       1  ZINC000587344575    0.1100
     10 C10        -1.2330    3.2515   56.0593 C.3     1  ZINC000587344575   -0.1200
     11 C11        -2.3316    3.1705   57.1489 C.3     1  ZINC000587344575    0.0400
     12 N12        -3.5921    3.2376   56.3661 N.3     1  ZINC000587344575   -0.4800
     13 C13        -4.6593    3.6311   57.1709 C.ar    1  ZINC000587344575    0.0700
     14 C14        -4.5905    4.8259   57.8790 C.ar    1  ZINC000587344575   -0.1200
     15 C15        -5.6431    5.2181   58.6760 C.ar    1  ZINC000587344575   -0.0700
     16 C16        -6.7824    4.4146   58.7729 C.ar    1  ZINC000587344575    0.0000
     17 C17        -7.8784    4.8205   59.6004 C.1     1  ZINC000587344575    0.2500
     18 N18        -8.7478    5.1424   60.2569 N.1     1  ZINC000587344575   -0.4000
     19 C19        -6.8501    3.2135   58.0597 C.ar    1  ZINC000587344575   -0.1000
     20 C20        -5.7958    2.8292   57.2600 C.ar    1  ZINC000587344575    0.1300
     21 F21        -5.8596    1.6695   56.5699 F       1  ZINC000587344575   -0.1200
     22 C22        -3.3474    4.2258   55.2902 C.3     1  ZINC000587344575    0.0500
     23 C23        -2.4358    3.6810   50.5184 C.ar    1  ZINC000587344575   -0.1400
     24 C24        -2.1579    3.2783   49.2314 C.ar    1  ZINC000587344575   -0.0600
     25 C25        -0.8723    3.4476   48.7104 C.ar    1  ZINC000587344575   -0.1600
     26 C26        -0.5709    3.0176   47.3309 C.2     1  ZINC000587344575    0.5600
     27 O27         0.1095    3.7213   46.6098 O.2     1  ZINC000587344575   -0.5300
     28 N28        -1.0499    1.8449   46.8709 N.am    1  ZINC000587344575   -0.7200
     29 C29        -0.7492    1.4172   45.5023 C.3     1  ZINC000587344575    0.1400
     30 C30         0.6941    0.9148   45.4304 C.3     1  ZINC000587344575   -0.1600
     31 C31        -1.7022    0.2901   45.0991 C.3     1  ZINC000587344575   -0.1600
     32 H32         1.5614    5.1166   48.3647 H       1  ZINC000587344575    0.0800
     33 H33         2.2345    4.2501   49.7662 H       1  ZINC000587344575    0.0600
     34 H34         1.7658    3.3495   48.3041 H       1  ZINC000587344575    0.1000
     35 H35         0.6184    4.8586   51.3983 H       1  ZINC000587344575    0.1300
     36 H36        -2.0662    5.5498   52.7696 H       1  ZINC000587344575    0.4100
     37 H37        -1.0769    2.2773   55.5958 H       1  ZINC000587344575    0.0900
     38 H38        -0.3021    3.6342   56.4778 H       1  ZINC000587344575    0.0900
     39 H39        -2.2658    2.2279   57.6923 H       1  ZINC000587344575    0.0900
     40 H40        -2.2580    4.0160   57.8329 H       1  ZINC000587344575    0.0600
     41 H41        -3.7101    5.4471   57.8043 H       1  ZINC000587344575    0.1400
     42 H42        -5.5880    6.1460   59.2259 H       1  ZINC000587344575    0.1400
     43 H43        -7.7292    2.5902   58.1322 H       1  ZINC000587344575    0.1500
     44 H44        -3.6917    5.2109   55.6055 H       1  ZINC000587344575    0.0600
     45 H45        -3.8665    3.9215   54.3814 H       1  ZINC000587344575    0.1100
     46 H46        -3.4300    3.5539   50.9205 H       1  ZINC000587344575    0.1400
     47 H47        -2.9335    2.8359   48.6239 H       1  ZINC000587344575    0.1300
     48 H48        -1.5937    1.2840   47.4458 H       1  ZINC000587344575    0.4000
     49 H49        -0.8749    2.2598   44.8224 H       1  ZINC000587344575    0.0900
     50 H50         0.8198    0.0721   46.1103 H       1  ZINC000587344575    0.0600
     51 H51         0.9178    0.5966   44.4122 H       1  ZINC000587344575    0.0700
     52 H52         1.3731    1.7178   45.7176 H       1  ZINC000587344575    0.0600
     53 H53        -1.5766   -0.5526   45.7790 H       1  ZINC000587344575    0.0600
     54 H54        -2.7304    0.6480   45.1504 H       1  ZINC000587344575    0.0600
     55 H55        -1.4785   -0.0280   44.0809 H       1  ZINC000587344575    0.0700
@<TRIPOS>BOND
     1     1     2    1
     2     1    32    1
     3     1    33    1
     4     1    34    1
     5     2    25   ar
     6     2     3   ar
     7     3     4   ar
     8     3    35    1
     9     4     5    1
    10     4    23   ar
    11     5     6   am
    12     5    36    1
    13     6     7    2
    14     6     8    1
    15     8     9    1
    16     8    22    1
    17     8    10    1
    18    10    11    1
    19    10    37    1
    20    10    38    1
    21    11    12    1
    22    11    39    1
    23    11    40    1
    24    12    13    1
    25    12    22    1
    26    13    20   ar
    27    13    14   ar
    28    14    15   ar
    29    14    41    1
    30    15    16   ar
    31    15    42    1
    32    16    17    1
    33    16    19   ar
    34    17    18    3
    35    19    20   ar
    36    19    43    1
    37    20    21    1
    38    22    44    1
    39    22    45    1
    40    23    24   ar
    41    23    46    1
    42    24    25   ar
    43    24    47    1
    44    25    26    1
    45    26    27    2
    46    26    28   am
    47    28    29    1
    48    28    48    1
    49    29    30    1
    50    29    31    1
    51    29    49    1
    52    30    50    1
    53    30    51    1
    54    30    52    1
    55    31    53    1
    56    31    54    1
    57    31    55    1
@<TRIPOS>SUBSTRUCTURE
     1 ZINC000587344575        1 TEMP              0 ****  ****    0 ROOT


##########                                Name:    ZINC001191386213
##########                DOCK_Rotatable_Bonds:                   6
##########                         Heavy_Atoms:                  29
##########                    Molecular_Weight:             392.433
##########                DOCK_Rotatable_Bonds:                   6
##########                       Formal_Charge:               -0.02
##########                     HBond_Acceptors:                   7
##########                        HBond_Donors:                   2
##########                         Heavy_Atoms:                  29
##########                          Grid_Score:          -28.205563
##########                     Grid_vdw_energy:          -28.955307
##########                      Grid_es_energy:            0.749745
##########           Internal_energy_repulsive:           12.318799

@<TRIPOS>MOLECULE
ZINC001191386213
 50 53 1 0 0
SMALL
USER_CHARGES


@<TRIPOS>ATOM
      1 C1         -6.8418    2.7614   57.8332 C.3     1  ZINC001191386213   -0.1700
      2 C2         -5.5275    3.1397   57.2001 C.2     1  ZINC001191386213    0.5100
      3 O3         -4.9276    4.1199   57.5877 O.2     1  ZINC001191386213   -0.5200
      4 N4         -5.0188    2.3887   56.2033 N.am    1  ZINC001191386213   -0.6800
      5 C5         -3.7984    2.7400   55.6154 C.ar    1  ZINC001191386213    0.1400
      6 C6         -2.6048    2.4399   56.2599 C.ar    1  ZINC001191386213   -0.1400
      7 C7         -1.3977    2.7849   55.6820 C.ar    1  ZINC001191386213   -0.1000
      8 C8         -1.3713    3.4298   54.4616 C.ar    1  ZINC001191386213   -0.1100
      9 C9         -2.5640    3.7350   53.8083 C.ar    1  ZINC001191386213    0.0100
     10 C10        -2.5372    4.4285   52.4960 C.2     1  ZINC001191386213    0.0700
     11 N11        -3.4117    5.3135   52.0660 N.2     1  ZINC001191386213   -0.2500
     12 N12        -3.1038    5.7241   50.8889 N.pl3   1  ZINC001191386213   -0.3800
     13 C13        -1.9621    5.1043   50.4645 C.2     1  ZINC001191386213   -0.0400
     14 C14        -1.2809    5.2994   49.1743 C.2     1  ZINC001191386213    0.6100
     15 O15        -1.0621    6.4240   48.7660 O.2     1  ZINC001191386213   -0.5100
     16 N16        -0.8997    4.2317   48.4454 N.am    1  ZINC001191386213   -0.6200
     17 C17        -0.2141    4.2821   47.1459 C.3     1  ZINC001191386213    0.0800
     18 C18        -0.0035    2.8253   46.6821 C.3     1  ZINC001191386213   -0.1200
     19 C19        -1.0858    2.0478   47.4767 C.3     1  ZINC001191386213   -0.0600
     20 H20        -2.0543    2.1090   46.9804 H       1  ZINC001191386213    0.1000
     21 C21        -0.6774    0.6120   47.6827 C.ar    1  ZINC001191386213   -0.1100
     22 C22         0.6141    0.3094   48.0697 C.ar    1  ZINC001191386213   -0.0900
     23 C23         0.9891   -1.0079   48.2587 C.ar    1  ZINC001191386213   -0.1300
     24 C24         0.0730   -2.0237   48.0604 C.ar    1  ZINC001191386213   -0.0900
     25 C25        -1.2194   -1.7235   47.6729 C.ar    1  ZINC001191386213   -0.1500
     26 C26        -1.5979   -0.4046   47.4898 C.ar    1  ZINC001191386213    0.1100
     27 F27        -2.8608   -0.1100   47.1110 F       1  ZINC001191386213   -0.1400
     28 C28        -1.0954    2.8199   48.8222 C.3     1  ZINC001191386213    0.1200
     29 C29        -1.5693    4.2636   51.4884 C.2     1  ZINC001191386213   -0.1300
     30 C30        -3.7799    3.3825   54.3865 C.ar    1  ZINC001191386213   -0.1000
     31 H31        -7.0891    3.4804   58.6142 H       1  ZINC001191386213    0.1000
     32 H32        -7.6247    2.7650   57.0748 H       1  ZINC001191386213    0.0900
     33 H33        -6.7621    1.7653   58.2683 H       1  ZINC001191386213    0.0900
     34 H34        -5.4986    1.6046   55.8934 H       1  ZINC001191386213    0.4100
     35 H35        -2.6203    1.9362   57.2151 H       1  ZINC001191386213    0.1300
     36 H36        -0.4723    2.5497   56.1867 H       1  ZINC001191386213    0.1300
     37 H37        -0.4262    3.6983   54.0132 H       1  ZINC001191386213    0.1300
     38 H38        -3.6070    6.3764   50.3769 H       1  ZINC001191386213    0.4400
     39 H39        -0.8299    4.8162   46.4222 H       1  ZINC001191386213    0.0700
     40 H40         0.7497    4.7796   47.2542 H       1  ZINC001191386213    0.0800
     41 H41        -0.1728    2.7339   45.6092 H       1  ZINC001191386213    0.0900
     42 H42         0.9945    2.4766   46.9473 H       1  ZINC001191386213    0.0900
     43 H43         1.3311    1.1023   48.2243 H       1  ZINC001191386213    0.1300
     44 H44         1.9988   -1.2435   48.5612 H       1  ZINC001191386213    0.1300
     45 H45         0.3671   -3.0524   48.2080 H       1  ZINC001191386213    0.1300
     46 H46        -1.9349   -2.5174   47.5174 H       1  ZINC001191386213    0.1400
     47 H47        -0.2828    2.4766   49.4625 H       1  ZINC001191386213    0.0800
     48 H48        -2.0544    2.6944   49.3248 H       1  ZINC001191386213    0.0900
     49 H49        -0.7070    3.6138   51.5084 H       1  ZINC001191386213    0.1700
     50 H50        -4.7067    3.6171   53.8840 H       1  ZINC001191386213    0.1500
@<TRIPOS>BOND
     1     1     2    1
     2     1    31    1
     3     1    32    1
     4     1    33    1
     5     2     3    2
     6     2     4   am
     7     4     5    1
     8     4    34    1
     9     5    30   ar
    10     5     6   ar
    11     6     7   ar
    12     6    35    1
    13     7     8   ar
    14     7    36    1
    15     8     9   ar
    16     8    37    1
    17     9    10    1
    18     9    30   ar
    19    10    29    1
    20    10    11    2
    21    11    12    1
    22    12    13    1
    23    12    38    1
    24    13    14    1
    25    13    29    2
    26    14    15    2
    27    14    16   am
    28    16    28    1
    29    16    17    1
    30    17    18    1
    31    17    39    1
    32    17    40    1
    33    18    19    1
    34    18    41    1
    35    18    42    1
    36    19    20    1
    37    19    21    1
    38    19    28    1
    39    21    26   ar
    40    21    22   ar
    41    22    23   ar
    42    22    43    1
    43    23    24   ar
    44    23    44    1
    45    24    25   ar
    46    24    45    1
    47    25    26   ar
    48    25    46    1
    49    26    27    1
    50    28    47    1
    51    28    48    1
    52    29    49    1
    53    30    50    1
@<TRIPOS>SUBSTRUCTURE
     1 ZINC001191386213        1 TEMP              0 ****  ****    0 ROOT


##########                                Name:    ZINC000330515179
##########                DOCK_Rotatable_Bonds:                   4
##########                         Heavy_Atoms:                  21
##########                    Molecular_Weight:             378.287
##########                DOCK_Rotatable_Bonds:                   4
##########                       Formal_Charge:           0.0200002
##########                     HBond_Acceptors:                   6
##########                        HBond_Donors:                   0
##########                         Heavy_Atoms:                  21
##########                          Grid_Score:          -28.191654
##########                     Grid_vdw_energy:          -27.591307
##########                      Grid_es_energy:           -0.600348
##########           Internal_energy_repulsive:            5.560425

@<TRIPOS>MOLECULE
ZINC000330515179
 41 42 1 0 0
SMALL
USER_CHARGES


@<TRIPOS>ATOM
      1 C1          0.8130    3.1198   42.8437 C.3     1  ZINC000330515179    0.0300
      2 O2          0.1916    2.9082   44.1130 O.3     1  ZINC000330515179   -0.3800
      3 C3          0.2959    1.5669   44.5948 C.3     1  ZINC000330515179    0.0700
      4 C4         -0.5052    1.4268   45.8907 C.3     1  ZINC000330515179    0.0800
      5 H5         -1.5654    1.5680   45.6804 H       1  ZINC000330515179    0.0800
      6 C6         -0.0381    2.4835   46.8983 C.3     1  ZINC000330515179    0.0900
      7 N7         -0.6857    2.2103   48.1911 N.am    1  ZINC000330515179   -1.0000
      8 S8         -1.4790    3.4067   49.0168 S.o2    1  ZINC000330515179    2.6900
      9 O9         -1.2358    4.6133   48.3067 O.2     1  ZINC000330515179   -0.9400
     10 O10        -2.7838    2.9121   49.2847 O.2     1  ZINC000330515179   -0.9500
     11 C11        -0.6819    3.5793   50.5786 C.ar    1  ZINC000330515179   -0.6700
     12 C12        -1.4038    3.4096   51.7453 C.ar    1  ZINC000330515179   -0.0100
     13 C13        -0.7789    3.5445   52.9708 C.ar    1  ZINC000330515179   -0.1100
     14 C14         0.5691    3.8492   53.0297 C.ar    1  ZINC000330515179   -0.0400
     15 Br15        1.4248    4.0332   54.7059 Br      1  ZINC000330515179   -0.0300
     16 C16         1.2911    4.0189   51.8621 C.ar    1  ZINC000330515179   -0.1100
     17 C17         0.6665    3.8787   50.6370 C.ar    1  ZINC000330515179   -0.0100
     18 C18        -0.6071    0.8428   48.7288 C.3     1  ZINC000330515179    0.1000
     19 C19        -1.0465   -0.1339   47.6321 C.3     1  ZINC000330515179    0.1000
     20 C20        -0.7920   -1.5699   48.0946 C.3     1  ZINC000330515179   -0.1400
     21 C21        -2.5380    0.0546   47.3476 C.3     1  ZINC000330515179   -0.1800
     22 O22        -0.2970    0.1245   46.4424 O.3     1  ZINC000330515179   -0.3500
     23 H23         0.6900    4.1617   42.5481 H       1  ZINC000330515179    0.0900
     24 H24         1.8752    2.8856   42.9156 H       1  ZINC000330515179    0.0400
     25 H25         0.3481    2.4735   42.0992 H       1  ZINC000330515179    0.0400
     26 H26        -0.1002    0.8802   43.8468 H       1  ZINC000330515179    0.0600
     27 H27         1.3424    1.3303   44.7872 H       1  ZINC000330515179    0.0700
     28 H28         1.0447    2.4295   47.0113 H       1  ZINC000330515179    0.0900
     29 H29        -0.3220    3.4758   46.5478 H       1  ZINC000330515179    0.1000
     30 H30        -2.4564    3.1721   51.6992 H       1  ZINC000330515179    0.1500
     31 H31        -1.3430    3.4123   53.8822 H       1  ZINC000330515179    0.1500
     32 H32         2.3435    4.2568   51.9075 H       1  ZINC000330515179    0.1500
     33 H33         1.2300    4.0111   49.7253 H       1  ZINC000330515179    0.1500
     34 H34         0.4184    0.6237   49.0262 H       1  ZINC000330515179    0.0900
     35 H35        -1.2679    0.7487   49.5906 H       1  ZINC000330515179    0.1000
     36 H36        -1.3608   -1.7650   49.0036 H       1  ZINC000330515179    0.0800
     37 H37        -1.1047   -2.2638   47.3143 H       1  ZINC000330515179    0.0700
     38 H38         0.2710   -1.7039   48.2954 H       1  ZINC000330515179    0.0700
     39 H39        -2.7184    1.0773   47.0163 H       1  ZINC000330515179    0.0600
     40 H40        -2.8497   -0.6402   46.5677 H       1  ZINC000330515179    0.0700
     41 H41        -3.1085   -0.1392   48.2559 H       1  ZINC000330515179    0.0700
@<TRIPOS>BOND
     1     1     2    1
     2     1    23    1
     3     1    24    1
     4     1    25    1
     5     2     3    1
     6     3     4    1
     7     3    26    1
     8     3    27    1
     9     4     5    1
    10     4    22    1
    11     4     6    1
    12     6     7    1
    13     6    28    1
    14     6    29    1
    15     7     8   am
    16     7    18    1
    17     8     9    2
    18     8    10    2
    19     8    11    1
    20    11    17   ar
    21    11    12   ar
    22    12    13   ar
    23    12    30    1
    24    13    14   ar
    25    13    31    1
    26    14    15    1
    27    14    16   ar
    28    16    17   ar
    29    16    32    1
    30    17    33    1
    31    18    19    1
    32    18    34    1
    33    18    35    1
    34    19    20    1
    35    19    21    1
    36    19    22    1
    37    20    36    1
    38    20    37    1
    39    20    38    1
    40    21    39    1
    41    21    40    1
    42    21    41    1
@<TRIPOS>SUBSTRUCTURE
     1 ZINC000330515179        1 TEMP              0 ****  ****    0 ROOT


##########                                Name:    ZINC000885154703
##########                DOCK_Rotatable_Bonds:                   5
##########                         Heavy_Atoms:                  24
##########                    Molecular_Weight:             396.259
##########                DOCK_Rotatable_Bonds:                   5
##########                       Formal_Charge:          -0.0099998
##########                     HBond_Acceptors:                   6
##########                        HBond_Donors:                   1
##########                         Heavy_Atoms:                  24
##########                          Grid_Score:          -28.127916
##########                     Grid_vdw_energy:          -27.300014
##########                      Grid_es_energy:           -0.827902
##########           Internal_energy_repulsive:            9.395477

@<TRIPOS>MOLECULE
ZINC000885154703
 43 45 1 0 0
SMALL
USER_CHARGES


@<TRIPOS>ATOM
      1 C1        -13.1625    1.3655   64.4758 C.3     1  ZINC000885154703   -0.1500
      2 C2        -14.2248    0.4613   63.8472 C.3     1  ZINC000885154703   -0.0300
      3 C3        -13.5663   -0.4932   62.8847 C.2     1  ZINC000885154703    0.1700
      4 N4        -14.0234   -1.6529   62.5180 N.2     1  ZINC000885154703   -0.3800
      5 O5        -13.2605   -2.1758   61.7330 O.3     1  ZINC000885154703    0.0800
      6 C6        -12.2126   -1.3748   61.5179 C.2     1  ZINC000885154703    0.1800
      7 C7        -11.0417   -1.6529   60.6109 C.3     1  ZINC000885154703    0.0000
      8 H8        -10.9001   -2.7283   60.5036 H       1  ZINC000885154703    0.1300
      9 C9         -9.7638   -1.0064   61.1844 C.3     1  ZINC000885154703   -0.1200
     10 C10        -8.9975   -0.5062   59.9347 C.3     1  ZINC000885154703   -0.1300
     11 C11       -10.1363    0.0029   59.0165 C.3     1  ZINC000885154703    0.1400
     12 H12       -10.4512    1.0020   59.3177 H       1  ZINC000885154703    0.1000
     13 N13        -9.7048    0.0028   57.6165 N.am    1  ZINC000885154703   -0.7100
     14 C14       -10.5136    0.5042   56.6621 C.2     1  ZINC000885154703    0.5700
     15 O15       -11.6017    0.9553   56.9627 O.2     1  ZINC000885154703   -0.5100
     16 C16       -10.0778    0.5057   55.2509 C.ar    1  ZINC000885154703   -0.1600
     17 C17        -9.1640    1.4625   54.7988 C.ar    1  ZINC000885154703    0.1500
     18 F18        -8.6762    2.3897   55.6517 F       1  ZINC000885154703   -0.1200
     19 C19        -8.7607    1.4567   53.4757 C.ar    1  ZINC000885154703   -0.1500
     20 C20        -9.2593    0.5086   52.6027 C.ar    1  ZINC000885154703   -0.0400
     21 C21       -10.1650   -0.4420   53.0449 C.ar    1  ZINC000885154703   -0.1100
     22 Br22      -10.8395   -1.7337   51.8398 Br      1  ZINC000885154703   -0.0300
     23 C23       -10.5720   -0.4522   54.3628 C.ar    1  ZINC000885154703    0.0100
     24 C24       -11.5569   -1.4879   54.8408 C.3     1  ZINC000885154703   -0.1300
     25 C25       -11.2791   -1.0122   59.2322 C.3     1  ZINC000885154703   -0.1300
     26 N26       -12.4005   -0.2984   62.2430 N.2     1  ZINC000885154703   -0.4800
     27 H27       -12.4354    0.7544   65.0105 H       1  ZINC000885154703    0.0600
     28 H28       -12.6567    1.9303   63.6928 H       1  ZINC000885154703    0.0600
     29 H29       -13.6388    2.0559   65.1719 H       1  ZINC000885154703    0.0700
     30 H30       -14.7306   -0.1035   64.6302 H       1  ZINC000885154703    0.1000
     31 H31       -14.9519    1.0724   63.3125 H       1  ZINC000885154703    0.0900
     32 H32       -10.0186   -0.1702   61.8356 H       1  ZINC000885154703    0.0800
     33 H33        -9.1719   -1.7452   61.7246 H       1  ZINC000885154703    0.0900
     34 H34        -8.3199    0.3063   60.1966 H       1  ZINC000885154703    0.0800
     35 H35        -8.4558   -1.3247   59.4606 H       1  ZINC000885154703    0.0800
     36 H36        -8.8371   -0.3582   57.3765 H       1  ZINC000885154703    0.4000
     37 H37        -8.0549    2.1948   53.1241 H       1  ZINC000885154703    0.1500
     38 H38        -8.9417    0.5089   51.5705 H       1  ZINC000885154703    0.1500
     39 H39       -11.0174   -2.3679   55.1910 H       1  ZINC000885154703    0.0900
     40 H40       -12.1495   -1.0760   55.6577 H       1  ZINC000885154703    0.0800
     41 H41       -12.2159   -1.7688   54.0194 H       1  ZINC000885154703    0.0900
     42 H42       -11.2517   -1.7758   58.4548 H       1  ZINC000885154703    0.0900
     43 H43       -12.2410   -0.4999   59.2192 H       1  ZINC000885154703    0.0800
@<TRIPOS>BOND
     1     1     2    1
     2     1    27    1
     3     1    28    1
     4     1    29    1
     5     2     3    1
     6     2    30    1
     7     2    31    1
     8     3    26    1
     9     3     4    2
    10     4     5    1
    11     5     6    1
    12     6     7    1
    13     6    26    2
    14     7     8    1
    15     7    25    1
    16     7     9    1
    17     9    10    1
    18     9    32    1
    19     9    33    1
    20    10    11    1
    21    10    34    1
    22    10    35    1
    23    11    12    1
    24    11    13    1
    25    11    25    1
    26    13    14   am
    27    13    36    1
    28    14    15    2
    29    14    16    1
    30    16    23   ar
    31    16    17   ar
    32    17    18    1
    33    17    19   ar
    34    19    20   ar
    35    19    37    1
    36    20    21   ar
    37    20    38    1
    38    21    22    1
    39    21    23   ar
    40    23    24    1
    41    24    39    1
    42    24    40    1
    43    24    41    1
    44    25    42    1
    45    25    43    1
@<TRIPOS>SUBSTRUCTURE
     1 ZINC000885154703        1 TEMP              0 ****  ****    0 ROOT


##########                                Name:    ZINC000546115054
##########                DOCK_Rotatable_Bonds:                  10
##########                         Heavy_Atoms:                  26
##########                    Molecular_Weight:             363.457
##########                DOCK_Rotatable_Bonds:                  10
##########                       Formal_Charge:        -4.39584e-07
##########                     HBond_Acceptors:                   7
##########                        HBond_Donors:                   2
##########                         Heavy_Atoms:                  26
##########                          Grid_Score:          -28.105560
##########                     Grid_vdw_energy:          -27.155701
##########                      Grid_es_energy:           -0.949860
##########           Internal_energy_repulsive:           32.721733

@<TRIPOS>MOLECULE
ZINC000546115054
 55 56 1 0 0
SMALL
USER_CHARGES


@<TRIPOS>ATOM
      1 C1         -2.2147   -1.0246   47.4074 C.3     1  ZINC000546115054   -0.1500
      2 C2         -2.6145    0.4511   47.4669 C.3     1  ZINC000546115054    0.0600
      3 O3         -1.6475    1.1762   48.2293 O.3     1  ZINC000546115054   -0.3700
      4 C4         -1.0202    2.2403   47.5109 C.3     1  ZINC000546115054    0.0500
      5 H5         -1.7049    2.6218   46.7534 H       1  ZINC000546115054    0.0700
      6 C6          0.2521    1.7216   46.8356 C.3     1  ZINC000546115054    0.0400
      7 O7          0.9081    2.8001   46.1661 O.3     1  ZINC000546115054   -0.3700
      8 C8          1.3191    3.8604   47.0315 C.3     1  ZINC000546115054    0.0600
      9 C9          0.0898    4.4651   47.7146 C.3     1  ZINC000546115054   -0.1600
     10 C10        -0.6522    3.3663   48.4819 C.3     1  ZINC000546115054    0.1700
     11 H11        -0.0082    2.9721   49.2680 H       1  ZINC000546115054    0.1000
     12 N12        -1.8697    3.9217   49.0782 N.am    1  ZINC000546115054   -0.7300
     13 C13        -2.1940    3.6213   50.3515 C.2     1  ZINC000546115054    0.7200
     14 O14        -1.4768    2.8883   51.0047 O.2     1  ZINC000546115054   -0.5900
     15 N15        -3.3132    4.1335   50.9005 N.am    1  ZINC000546115054   -0.7200
     16 C16        -3.6666    3.8055   52.2840 C.3     1  ZINC000546115054    0.1600
     17 H17        -3.3938    2.7712   52.4932 H       1  ZINC000546115054    0.1200
     18 C18        -2.9122    4.7347   53.2370 C.3     1  ZINC000546115054   -0.1000
     19 C19        -2.6633    4.0220   54.5413 C.ar    1  ZINC000546115054   -0.0800
     20 C20        -1.4519    3.3952   54.7663 C.ar    1  ZINC000546115054   -0.1100
     21 C21        -1.2238    2.7416   55.9627 C.ar    1  ZINC000546115054   -0.1200
     22 C22        -2.2067    2.7147   56.9342 C.ar    1  ZINC000546115054   -0.1200
     23 C23        -3.4178    3.3422   56.7095 C.ar    1  ZINC000546115054   -0.1200
     24 C24        -3.6445    3.9997   55.5150 C.ar    1  ZINC000546115054   -0.1100
     25 C25        -5.1504    3.9830   52.4790 C.2     1  ZINC000546115054    0.5000
     26 O26        -5.7918    3.1325   53.0587 O.2     1  ZINC000546115054   -0.5200
     27 N27        -5.7645    5.0870   52.0093 N.am    1  ZINC000546115054   -0.6200
     28 C28        -4.9900    6.1136   51.3077 C.3     1  ZINC000546115054    0.0800
     29 C29        -7.2066    5.2603   52.2006 C.3     1  ZINC000546115054    0.0700
     30 H30        -2.9524   -1.5777   46.8260 H       1  ZINC000546115054    0.0700
     31 H31        -1.2365   -1.1172   46.9358 H       1  ZINC000546115054    0.0600
     32 H32        -2.1706   -1.4300   48.4182 H       1  ZINC000546115054    0.0600
     33 H33        -2.6587    0.8566   46.4560 H       1  ZINC000546115054    0.0500
     34 H34        -3.5928    0.5438   47.9386 H       1  ZINC000546115054    0.0500
     35 H35         0.9186    1.3023   47.5893 H       1  ZINC000546115054    0.0600
     36 H36        -0.0095    0.9497   46.1117 H       1  ZINC000546115054    0.1000
     37 H37         1.9997    3.4692   47.7878 H       1  ZINC000546115054    0.0600
     38 H38         1.8263    4.6293   46.4489 H       1  ZINC000546115054    0.1000
     39 H39         0.4050    5.2445   48.4084 H       1  ZINC000546115054    0.0900
     40 H40        -0.5721    4.8926   46.9614 H       1  ZINC000546115054    0.0800
     41 H41        -2.4425    4.5054   48.5567 H       1  ZINC000546115054    0.3900
     42 H42        -3.8847    4.7192   50.3798 H       1  ZINC000546115054    0.4000
     43 H43        -1.9592    5.0176   52.7900 H       1  ZINC000546115054    0.0900
     44 H44        -3.5076    5.6292   53.4196 H       1  ZINC000546115054    0.1100
     45 H45        -0.6840    3.4162   54.0073 H       1  ZINC000546115054    0.1200
     46 H46        -0.2775    2.2512   56.1383 H       1  ZINC000546115054    0.1200
     47 H47        -2.0287    2.2033   57.8686 H       1  ZINC000546115054    0.1200
     48 H48        -4.1859    3.3210   57.4685 H       1  ZINC000546115054    0.1200
     49 H49        -4.5907    4.4899   55.3393 H       1  ZINC000546115054    0.1200
     50 H50        -4.9737    5.8906   50.2408 H       1  ZINC000546115054    0.0600
     51 H51        -5.4499    7.0887   51.4681 H       1  ZINC000546115054    0.0700
     52 H52        -3.9701    6.1253   51.6920 H       1  ZINC000546115054    0.0800
     53 H53        -7.3885    5.7809   53.1408 H       1  ZINC000546115054    0.0600
     54 H54        -7.6146    5.8455   51.3765 H       1  ZINC000546115054    0.0800
     55 H55        -7.6897    4.2836   52.2268 H       1  ZINC000546115054    0.0700
@<TRIPOS>BOND
     1     1     2    1
     2     1    30    1
     3     1    31    1
     4     1    32    1
     5     2     3    1
     6     2    33    1
     7     2    34    1
     8     3     4    1
     9     4     5    1
    10     4    10    1
    11     4     6    1
    12     6     7    1
    13     6    35    1
    14     6    36    1
    15     7     8    1
    16     8     9    1
    17     8    37    1
    18     8    38    1
    19     9    10    1
    20     9    39    1
    21     9    40    1
    22    10    11    1
    23    10    12    1
    24    12    13   am
    25    12    41    1
    26    13    14    2
    27    13    15   am
    28    15    16    1
    29    15    42    1
    30    16    17    1
    31    16    18    1
    32    16    25    1
    33    18    19    1
    34    18    43    1
    35    18    44    1
    36    19    24   ar
    37    19    20   ar
    38    20    21   ar
    39    20    45    1
    40    21    22   ar
    41    21    46    1
    42    22    23   ar
    43    22    47    1
    44    23    24   ar
    45    23    48    1
    46    24    49    1
    47    25    26    2
    48    25    27   am
    49    27    28    1
    50    27    29    1
    51    28    50    1
    52    28    51    1
    53    28    52    1
    54    29    53    1
    55    29    54    1
    56    29    55    1
@<TRIPOS>SUBSTRUCTURE
     1 ZINC000546115054        1 TEMP              0 ****  ****    0 ROOT


##########                                Name:    ZINC000863246516
##########                DOCK_Rotatable_Bonds:                   5
##########                         Heavy_Atoms:                  25
##########                    Molecular_Weight:             356.489
##########                DOCK_Rotatable_Bonds:                   5
##########                       Formal_Charge:         -0.00999938
##########                     HBond_Acceptors:                   5
##########                        HBond_Donors:                   0
##########                         Heavy_Atoms:                  25
##########                          Grid_Score:          -28.086863
##########                     Grid_vdw_energy:          -26.797146
##########                      Grid_es_energy:           -1.289717
##########           Internal_energy_repulsive:           14.964047

@<TRIPOS>MOLECULE
ZINC000863246516
 49 52 1 0 0
SMALL
USER_CHARGES


@<TRIPOS>ATOM
      1 C1         -9.3298    0.9922   63.1809 C.3     1  ZINC000863246516   -0.0600
      2 C2        -10.7432    0.4888   63.0397 C.2     1  ZINC000863246516   -0.2000
      3 C3        -11.1456   -0.6174   62.4299 C.2     1  ZINC000863246516    0.0900
      4 C4        -10.1692   -1.5548   61.7673 C.3     1  ZINC000863246516   -0.1000
      5 N5        -12.4859   -0.8654   62.4321 N.am    1  ZINC000863246516   -0.5300
      6 C6        -13.0421   -2.0582   61.7888 C.3     1  ZINC000863246516    0.1200
      7 C7        -14.0648   -1.6374   60.7314 C.3     1  ZINC000863246516   -0.1500
      8 C8        -13.9495   -2.5434   59.5326 C.2     1  ZINC000863246516    0.5400
      9 O9        -14.6108   -3.5583   59.4737 O.2     1  ZINC000863246516   -0.5300
     10 N10       -13.1115   -2.2257   58.5260 N.am    1  ZINC000863246516   -0.6100
     11 C11       -12.2598   -1.0319   58.4757 C.3     1  ZINC000863246516    0.1100
     12 C12       -11.1727   -1.3072   57.4195 C.3     1  ZINC000863246516   -0.1300
     13 H13       -10.1954   -1.5824   57.8157 H       1  ZINC000863246516    0.1000
     14 C14       -11.1814   -0.2905   56.2659 C.3     1  ZINC000863246516   -0.1200
     15 C15       -12.3808   -1.0609   55.6907 C.3     1  ZINC000863246516   -0.0600
     16 H16       -13.3438   -0.7047   56.0567 H       1  ZINC000863246516    0.1000
     17 C17       -12.3421   -1.2041   54.1910 C.ar    1  ZINC000863246516   -0.0700
     18 C18       -13.4082   -0.7672   53.4272 C.ar    1  ZINC000863246516   -0.1200
     19 C19       -13.3727   -0.8986   52.0516 C.ar    1  ZINC000863246516   -0.1200
     20 C20       -12.2710   -1.4665   51.4397 C.ar    1  ZINC000863246516   -0.1200
     21 C21       -11.2044   -1.9025   52.2034 C.ar    1  ZINC000863246516   -0.1200
     22 C22       -11.2380   -1.7672   53.5788 C.ar    1  ZINC000863246516   -0.1200
     23 C23       -11.8499   -2.3093   56.4516 C.3     1  ZINC000863246516   -0.1100
     24 H24       -11.1896   -2.9657   55.8849 H       1  ZINC000863246516    0.1200
     25 C25       -12.9033   -3.0223   57.3124 C.3     1  ZINC000863246516    0.1200
     26 C26       -13.2751    0.0285   63.0488 C.2     1  ZINC000863246516    0.4800
     27 O27       -14.4877   -0.0147   63.1579 O.2     1  ZINC000863246516   -0.4700
     28 S28       -12.2209    1.2455   63.6599 S.3     1  ZINC000863246516    0.0100
     29 H29        -9.3315    1.9276   63.7405 H       1  ZINC000863246516    0.0700
     30 H30        -8.7318    0.2520   63.7126 H       1  ZINC000863246516    0.0800
     31 H31        -8.9037    1.1612   62.1920 H       1  ZINC000863246516    0.0800
     32 H32        -9.1571   -1.1672   61.8840 H       1  ZINC000863246516    0.0900
     33 H33       -10.2373   -2.5384   62.2320 H       1  ZINC000863246516    0.0800
     34 H34       -10.4068   -1.6368   60.7067 H       1  ZINC000863246516    0.0800
     35 H35       -12.2396   -2.6225   61.3138 H       1  ZINC000863246516    0.1000
     36 H36       -13.5299   -2.6812   62.5384 H       1  ZINC000863246516    0.1000
     37 H37       -15.0694   -1.7118   61.1477 H       1  ZINC000863246516    0.1000
     38 H38       -13.8720   -0.6081   60.4289 H       1  ZINC000863246516    0.1000
     39 H39       -12.8512   -0.1637   58.1846 H       1  ZINC000863246516    0.0700
     40 H40       -11.7994   -0.8608   59.4488 H       1  ZINC000863246516    0.0800
     41 H41       -11.4255    0.7241   56.5808 H       1  ZINC000863246516    0.0800
     42 H42       -10.2919   -0.3365   55.6376 H       1  ZINC000863246516    0.0900
     43 H43       -14.2690   -0.3236   53.9053 H       1  ZINC000863246516    0.1200
     44 H44       -14.2061   -0.5579   51.4549 H       1  ZINC000863246516    0.1200
     45 H45       -12.2435   -1.5698   50.3650 H       1  ZINC000863246516    0.1200
     46 H46       -10.3437   -2.3465   51.7254 H       1  ZINC000863246516    0.1200
     47 H47       -10.4048   -2.1079   54.1754 H       1  ZINC000863246516    0.1200
     48 H48       -12.5554   -4.0236   57.5666 H       1  ZINC000863246516    0.0700
     49 H49       -13.8440   -3.0868   56.7656 H       1  ZINC000863246516    0.0700
@<TRIPOS>BOND
     1     1     2    1
     2     1    29    1
     3     1    30    1
     4     1    31    1
     5     2    28    1
     6     2     3    2
     7     3     4    1
     8     3     5    1
     9     4    32    1
    10     4    33    1
    11     4    34    1
    12     5     6    1
    13     5    26   am
    14     6     7    1
    15     6    35    1
    16     6    36    1
    17     7     8    1
    18     7    37    1
    19     7    38    1
    20     8     9    2
    21     8    10   am
    22    10    25    1
    23    10    11    1
    24    11    12    1
    25    11    39    1
    26    11    40    1
    27    12    13    1
    28    12    23    1
    29    12    14    1
    30    14    15    1
    31    14    41    1
    32    14    42    1
    33    15    16    1
    34    15    17    1
    35    15    23    1
    36    17    22   ar
    37    17    18   ar
    38    18    19   ar
    39    18    43    1
    40    19    20   ar
    41    19    44    1
    42    20    21   ar
    43    20    45    1
    44    21    22   ar
    45    21    46    1
    46    22    47    1
    47    23    24    1
    48    23    25    1
    49    25    48    1
    50    25    49    1
    51    26    27    2
    52    26    28    1
@<TRIPOS>SUBSTRUCTURE
     1 ZINC000863246516        1 TEMP              0 ****  ****    0 ROOT


##########                                Name:    ZINC001061022329
##########                DOCK_Rotatable_Bonds:                   7
##########                         Heavy_Atoms:                  27
##########                    Molecular_Weight:             374.523
##########                DOCK_Rotatable_Bonds:                   7
##########                       Formal_Charge:           0.0800005
##########                     HBond_Acceptors:                   5
##########                        HBond_Donors:                   0
##########                         Heavy_Atoms:                  27
##########                          Grid_Score:          -28.062635
##########                     Grid_vdw_energy:          -26.311768
##########                      Grid_es_energy:           -1.750867
##########           Internal_energy_repulsive:           26.441570

@<TRIPOS>MOLECULE
ZINC001061022329
 61 64 1 0 0
SMALL
USER_CHARGES


@<TRIPOS>ATOM
      1 C1         -9.1112    1.5421   52.1126 C.3     1  ZINC001061022329   -0.1500
      2 C2         -9.4938    0.3289   52.9628 C.3     1  ZINC001061022329   -0.1200
      3 C3        -10.8271   -0.2382   52.4714 C.3     1  ZINC001061022329    0.0800
      4 H4        -11.1175    0.2639   51.5486 H       1  ZINC001061022329    0.0600
      5 C5        -10.6781   -1.7384   52.2104 C.3     1  ZINC001061022329   -0.1800
      6 O6        -11.8310   -0.0251   53.4658 O.3     1  ZINC001061022329   -0.3500
      7 C7        -11.4906   -0.5391   54.7549 C.3     1  ZINC001061022329    0.0500
      8 C8        -11.3992    0.5970   55.7407 C.2     1  ZINC001061022329    0.5200
      9 O9        -11.6999    1.7214   55.3997 O.2     1  ZINC001061022329   -0.5100
     10 N10       -10.9834    0.3637   57.0013 N.am    1  ZINC001061022329   -0.6100
     11 C11       -10.6126   -0.9932   57.4241 C.3     1  ZINC001061022329    0.1100
     12 C12       -11.4465   -1.3718   58.6539 C.3     1  ZINC001061022329   -0.1200
     13 C13       -11.3068   -0.2770   59.7089 C.3     1  ZINC001061022329   -0.0900
     14 C14       -11.9182   -0.6497   61.0665 C.3     1  ZINC001061022329    0.1200
     15 N15       -10.7109   -0.0412   61.6603 N.am    1  ZINC001061022329   -0.6400
     16 C16       -10.4223    0.5100   62.8559 C.2     1  ZINC001061022329    0.5400
     17 O17       -11.2744    0.5719   63.7167 O.2     1  ZINC001061022329   -0.5300
     18 C18        -9.0407    1.0495   63.1230 C.3     1  ZINC001061022329   -0.0900
     19 H19        -8.6526    1.5177   62.2184 H       1  ZINC001061022329    0.1000
     20 C20        -8.1174   -0.0974   63.5400 C.3     1  ZINC001061022329   -0.1000
     21 C21        -7.5644    0.1736   64.9450 C.3     1  ZINC001061022329   -0.0600
     22 H22        -6.9443   -0.6567   65.2830 H       1  ZINC001061022329    0.0800
     23 C23        -8.7471    0.3792   65.8799 C.2     1  ZINC001061022329   -0.1800
     24 C24        -9.5501    1.3767   65.5172 C.2     1  ZINC001061022329   -0.1300
     25 C25        -9.1071    2.0897   64.2486 C.3     1  ZINC001061022329   -0.0400
     26 H26        -9.7937    2.8989   64.0001 H       1  ZINC001061022329    0.0900
     27 C27        -7.6913    2.6317   64.4887 C.3     1  ZINC001061022329   -0.1100
     28 C28        -6.7533    1.4760   64.9012 C.3     1  ZINC001061022329   -0.1100
     29 C29        -9.9463   -0.2796   60.4198 C.3     1  ZINC001061022329    0.1100
     30 C30       -11.7299    1.1007   59.2052 C.3     1  ZINC001061022329   -0.1100
     31 C31       -10.8888    1.4637   57.9700 C.3     1  ZINC001061022329    0.1100
     32 H32        -9.0150    1.2393   51.0699 H       1  ZINC001061022329    0.0500
     33 H33        -9.8847    2.3051   52.1995 H       1  ZINC001061022329    0.0600
     34 H34        -8.1613    1.9461   52.4627 H       1  ZINC001061022329    0.0600
     35 H35        -8.7202   -0.4341   52.8759 H       1  ZINC001061022329    0.0800
     36 H36        -9.5899    0.6317   54.0055 H       1  ZINC001061022329    0.0700
     37 H37       -11.6279   -2.1424   51.8604 H       1  ZINC001061022329    0.0600
     38 H38        -9.9124   -1.9010   51.4519 H       1  ZINC001061022329    0.0700
     39 H39       -10.3877   -2.2406   53.1332 H       1  ZINC001061022329    0.0700
     40 H40       -12.2579   -1.2416   55.0803 H       1  ZINC001061022329    0.0800
     41 H41       -10.5295   -1.0507   54.6999 H       1  ZINC001061022329    0.0800
     42 H42       -10.8141   -1.6958   56.6155 H       1  ZINC001061022329    0.0900
     43 H43        -9.5530   -1.0200   57.6787 H       1  ZINC001061022329    0.0800
     44 H44       -12.4936   -1.4706   58.3678 H       1  ZINC001061022329    0.0800
     45 H45       -11.0878   -2.3174   59.0604 H       1  ZINC001061022329    0.0800
     46 H46       -12.8391   -0.1137   61.2961 H       1  ZINC001061022329    0.0800
     47 H47       -11.9966   -1.7240   61.2334 H       1  ZINC001061022329    0.0900
     48 H48        -8.6784   -1.0319   63.5446 H       1  ZINC001061022329    0.0700
     49 H49        -7.2911   -0.1737   62.8331 H       1  ZINC001061022329    0.0700
     50 H50        -8.9190   -0.2279   66.7563 H       1  ZINC001061022329    0.1200
     51 H51       -10.4345    1.6538   66.0718 H       1  ZINC001061022329    0.1200
     52 H52        -7.3156    3.0850   63.5714 H       1  ZINC001061022329    0.0700
     53 H53        -7.7187    3.3816   65.2793 H       1  ZINC001061022329    0.0700
     54 H54        -6.3408    1.6784   65.8896 H       1  ZINC001061022329    0.0700
     55 H55        -5.9412    1.3921   64.1791 H       1  ZINC001061022329    0.0700
     56 H56        -9.4388   -1.2439   60.3945 H       1  ZINC001061022329    0.0900
     57 H57        -9.2999    0.5506   60.1353 H       1  ZINC001061022329    0.0800
     58 H58       -12.7862    1.0821   58.9370 H       1  ZINC001061022329    0.0800
     59 H59       -11.5645    1.8413   59.9876 H       1  ZINC001061022329    0.0800
     60 H60        -9.8497    1.6092   58.2654 H       1  ZINC001061022329    0.0700
     61 H61       -11.2748    2.3789   57.5211 H       1  ZINC001061022329    0.1000
@<TRIPOS>BOND
     1     1     2    1
     2     1    32    1
     3     1    33    1
     4     1    34    1
     5     2     3    1
     6     2    35    1
     7     2    36    1
     8     3     4    1
     9     3     5    1
    10     3     6    1
    11     5    37    1
    12     5    38    1
    13     5    39    1
    14     6     7    1
    15     7     8    1
    16     7    40    1
    17     7    41    1
    18     8     9    2
    19     8    10   am
    20    10    31    1
    21    10    11    1
    22    11    12    1
    23    11    42    1
    24    11    43    1
    25    12    13    1
    26    12    44    1
    27    12    45    1
    28    13    29    1
    29    13    14    1
    30    13    30    1
    31    14    15    1
    32    14    46    1
    33    14    47    1
    34    15    16   am
    35    15    29    1
    36    16    17    2
    37    16    18    1
    38    18    19    1
    39    18    25    1
    40    18    20    1
    41    20    21    1
    42    20    48    1
    43    20    49    1
    44    21    22    1
    45    21    28    1
    46    21    23    1
    47    23    24    2
    48    23    50    1
    49    24    25    1
    50    24    51    1
    51    25    26    1
    52    25    27    1
    53    27    28    1
    54    27    52    1
    55    27    53    1
    56    28    54    1
    57    28    55    1
    58    29    56    1
    59    29    57    1
    60    30    31    1
    61    30    58    1
    62    30    59    1
    63    31    60    1
    64    31    61    1
@<TRIPOS>SUBSTRUCTURE
     1 ZINC001061022329        1 TEMP              0 ****  ****    0 ROOT


##########                                Name:    ZINC000680410869
##########                DOCK_Rotatable_Bonds:                   6
##########                         Heavy_Atoms:                  24
##########                    Molecular_Weight:             335.354
##########                DOCK_Rotatable_Bonds:                   6
##########                       Formal_Charge:        -1.04308e-07
##########                     HBond_Acceptors:                   7
##########                        HBond_Donors:                   0
##########                         Heavy_Atoms:                  24
##########                          Grid_Score:          -28.019133
##########                     Grid_vdw_energy:          -27.147184
##########                      Grid_es_energy:           -0.871949
##########           Internal_energy_repulsive:           10.841768

@<TRIPOS>MOLECULE
ZINC000680410869
 43 45 1 0 0
SMALL
USER_CHARGES


@<TRIPOS>ATOM
      1 O1         -2.0969   -0.0594   45.4896 O.2     1  ZINC000680410869   -0.5200
      2 C2         -1.1859    0.6109   45.9355 C.2     1  ZINC000680410869    0.6100
      3 C3         -0.1706    1.1768   45.0242 C.2     1  ZINC000680410869    0.0100
      4 N4         -0.3431    2.1745   44.1802 N.2     1  ZINC000680410869   -0.2500
      5 N5          0.7484    2.4077   43.5441 N.pl3   1  ZINC000680410869   -0.3500
      6 C6          0.9199    3.4491   42.5281 C.3     1  ZINC000680410869    0.5000
      7 F7          2.2257    3.9478   42.5872 F       1  ZINC000680410869   -0.1600
      8 F8          0.6848    2.9067   41.2601 F       1  ZINC000680410869   -0.1700
      9 C9          1.7150    1.5554   43.9473 C.2     1  ZINC000680410869    0.0100
     10 C10         1.1740    0.7550   44.8953 C.2     1  ZINC000680410869   -0.1700
     11 N11        -1.1054    0.8421   47.2609 N.am    1  ZINC000680410869   -0.6000
     12 C12        -2.1050    0.2890   48.1884 C.3     1  ZINC000680410869    0.0800
     13 C13        -2.6174    1.4251   49.0809 C.3     1  ZINC000680410869    0.0500
     14 O14        -1.5035    2.0964   49.6744 O.3     1  ZINC000680410869   -0.3700
     15 C15        -0.6294    2.7245   48.7335 C.3     1  ZINC000680410869    0.0800
     16 H16        -1.1942    3.4353   48.1302 H       1  ZINC000680410869    0.0600
     17 C17         0.4835    3.4605   49.4821 C.3     1  ZINC000680410869   -0.1000
     18 C18        -0.1127    4.6433   50.2480 C.3     1  ZINC000680410869   -0.0800
     19 C19        -0.5594    4.1846   51.6122 C.ar    1  ZINC000680410869   -0.0800
     20 C20        -1.9043    4.0011   51.8735 C.ar    1  ZINC000680410869   -0.1200
     21 C21        -2.3141    3.5803   53.1249 C.ar    1  ZINC000680410869   -0.1200
     22 C22        -1.3789    3.3426   54.1148 C.ar    1  ZINC000680410869   -0.1300
     23 C23        -0.0339    3.5252   53.8531 C.ar    1  ZINC000680410869   -0.1200
     24 C24         0.3762    3.9419   52.6005 C.ar    1  ZINC000680410869   -0.1200
     25 C25        -0.0120    1.6501   47.8238 C.3     1  ZINC000680410869    0.0600
     26 H26         0.2134    4.2579   42.7140 H       1  ZINC000680410869    0.1700
     27 H27         2.7316    1.5215   43.5841 H       1  ZINC000680410869    0.1900
     28 H28         1.6637   -0.0417   45.4356 H       1  ZINC000680410869    0.1700
     29 H29        -2.9343   -0.1366   47.6234 H       1  ZINC000680410869    0.1000
     30 H30        -1.6456   -0.4836   48.8050 H       1  ZINC000680410869    0.0800
     31 H31        -3.1894    2.1312   48.4789 H       1  ZINC000680410869    0.0600
     32 H32        -3.2542    1.0139   49.8642 H       1  ZINC000680410869    0.1100
     33 H33         0.9627    2.7777   50.1837 H       1  ZINC000680410869    0.0800
     34 H34         1.2221    3.8251   48.7682 H       1  ZINC000680410869    0.0800
     35 H35         0.6410    5.4234   50.3557 H       1  ZINC000680410869    0.0700
     36 H36        -0.9678    5.0376   49.6991 H       1  ZINC000680410869    0.0800
     37 H37        -2.6350    4.1868   51.1002 H       1  ZINC000680410869    0.1200
     38 H38        -3.3650    3.4376   53.3293 H       1  ZINC000680410869    0.1200
     39 H39        -1.6991    3.0146   55.0927 H       1  ZINC000680410869    0.1200
     40 H40         0.6968    3.3398   54.6266 H       1  ZINC000680410869    0.1200
     41 H41         1.4270    4.0846   52.3960 H       1  ZINC000680410869    0.1200
     42 H42         0.6576    1.0170   48.4058 H       1  ZINC000680410869    0.0800
     43 H43         0.5429    2.1277   47.0162 H       1  ZINC000680410869    0.1300
@<TRIPOS>BOND
     1     1     2    2
     2     2     3    1
     3     2    11   am
     4     3    10    1
     5     3     4    2
     6     4     5    1
     7     5     6    1
     8     5     9    1
     9     6     7    1
    10     6     8    1
    11     6    26    1
    12     9    10    2
    13     9    27    1
    14    10    28    1
    15    11    25    1
    16    11    12    1
    17    12    13    1
    18    12    29    1
    19    12    30    1
    20    13    14    1
    21    13    31    1
    22    13    32    1
    23    14    15    1
    24    15    16    1
    25    15    17    1
    26    15    25    1
    27    17    18    1
    28    17    33    1
    29    17    34    1
    30    18    19    1
    31    18    35    1
    32    18    36    1
    33    19    24   ar
    34    19    20   ar
    35    20    21   ar
    36    20    37    1
    37    21    22   ar
    38    21    38    1
    39    22    23   ar
    40    22    39    1
    41    23    24   ar
    42    23    40    1
    43    24    41    1
    44    25    42    1
    45    25    43    1
@<TRIPOS>SUBSTRUCTURE
     1 ZINC000680410869        1 TEMP              0 ****  ****    0 ROOT


##########                                Name:    ZINC000543020509
##########                DOCK_Rotatable_Bonds:                   5
##########                         Heavy_Atoms:                  26
##########                    Molecular_Weight:              366.81
##########                DOCK_Rotatable_Bonds:                   5
##########                       Formal_Charge:               -0.02
##########                     HBond_Acceptors:                   8
##########                        HBond_Donors:                   1
##########                         Heavy_Atoms:                  26
##########                          Grid_Score:          -28.013020
##########                     Grid_vdw_energy:          -26.359415
##########                      Grid_es_energy:           -1.653605
##########           Internal_energy_repulsive:            5.344151

@<TRIPOS>MOLECULE
ZINC000543020509
 41 43 1 0 0
SMALL
USER_CHARGES


@<TRIPOS>ATOM
      1 C1         -7.3974    1.9957   56.1781 C.3     1  ZINC000543020509    0.0800
      2 N2         -8.3185    2.2565   55.0690 N.pl3   1  ZINC000543020509   -0.6200
      3 C3         -9.5561    1.4822   54.9472 C.3     1  ZINC000543020509    0.0900
      4 C4         -8.0177    3.2400   54.1311 C.ar    1  ZINC000543020509    0.2500
      5 C5         -8.8871    4.3070   53.9111 C.ar    1  ZINC000543020509   -0.2200
      6 C6         -8.5559    5.2661   52.9718 C.ar    1  ZINC000543020509    0.1400
      7 N7         -7.4353    5.1849   52.2861 N.ar    1  ZINC000543020509   -0.5000
      8 C8         -6.5768    4.1861   52.4623 C.ar    1  ZINC000543020509    0.1100
      9 C9         -5.3292    4.1416   51.6650 C.2     1  ZINC000543020509    0.5900
     10 O10        -5.0690    5.0434   50.8929 O.2     1  ZINC000543020509   -0.5000
     11 N11        -4.4826    3.1012   51.7957 N.am    1  ZINC000543020509   -0.6200
     12 C12        -3.3030    3.0600   51.0436 C.2     1  ZINC000543020509    0.3200
     13 N13        -3.2067    2.7125   49.7816 N.2     1  ZINC000543020509   -0.3100
     14 N14        -1.8608    2.8041   49.4037 N.pl3   1  ZINC000543020509   -0.3300
     15 C15        -1.3411    2.5191   48.1387 C.ar    1  ZINC000543020509    0.2200
     16 C16        -0.7229    3.5163   47.3989 C.ar    1  ZINC000543020509   -0.1300
     17 C17        -0.2093    3.2333   46.1482 C.ar    1  ZINC000543020509   -0.0500
     18 C18        -0.3071    1.9547   45.6231 C.ar    1  ZINC000543020509   -0.0600
     19 Cl19        0.3432    1.6144   44.0498 Cl      1  ZINC000543020509   -0.0500
     20 C20        -0.9186    0.9504   46.3457 C.ar    1  ZINC000543020509   -0.0400
     21 C21        -1.4371    1.2218   47.6134 C.ar    1  ZINC000543020509   -0.0200
     22 C22        -2.0730    0.1844   48.3685 C.1     1  ZINC000543020509    0.2500
     23 N23        -2.5773   -0.6386   48.9676 N.1     1  ZINC000543020509   -0.3800
     24 C24        -1.1504    3.2194   50.4849 C.2     1  ZINC000543020509    0.0700
     25 C25        -2.0181    3.3893   51.5076 C.2     1  ZINC000543020509   -0.2400
     26 C26        -6.8360    3.1856   53.3921 C.ar    1  ZINC000543020509   -0.1800
     27 H27        -6.6766    1.2342   55.8803 H       1  ZINC000543020509    0.0600
     28 H28        -6.8700    2.9141   56.4360 H       1  ZINC000543020509    0.0700
     29 H29        -7.9603    1.6448   57.0430 H       1  ZINC000543020509    0.0700
     30 H30        -9.6183    0.7653   55.7660 H       1  ZINC000543020509    0.0800
     31 H31       -10.4119    2.1560   54.9886 H       1  ZINC000543020509    0.0600
     32 H32        -9.5591    0.9491   53.9965 H       1  ZINC000543020509    0.0600
     33 H33        -9.8094    4.3836   54.4677 H       1  ZINC000543020509    0.1400
     34 H34        -9.2269    6.0943   52.7980 H       1  ZINC000543020509    0.1700
     35 H35        -4.6908    2.3809   52.4111 H       1  ZINC000543020509    0.4300
     36 H36        -0.6431    4.5154   47.8012 H       1  ZINC000543020509    0.1500
     37 H37         0.2708    4.0134   45.5761 H       1  ZINC000543020509    0.1500
     38 H38        -0.9926   -0.0447   45.9327 H       1  ZINC000543020509    0.1500
     39 H39        -0.0841    3.3877   50.5198 H       1  ZINC000543020509    0.1900
     40 H40        -1.7671    3.7143   52.5064 H       1  ZINC000543020509    0.1800
     41 H41        -6.1369    2.3747   53.5344 H       1  ZINC000543020509    0.1500
@<TRIPOS>BOND
     1     1     2    1
     2     1    27    1
     3     1    28    1
     4     1    29    1
     5     2     3    1
     6     2     4    1
     7     3    30    1
     8     3    31    1
     9     3    32    1
    10     4    26   ar
    11     4     5   ar
    12     5     6   ar
    13     5    33    1
    14     6     7   ar
    15     6    34    1
    16     7     8   ar
    17     8     9    1
    18     8    26   ar
    19     9    10    2
    20     9    11   am
    21    11    12    1
    22    11    35    1
    23    12    25    1
    24    12    13    2
    25    13    14    1
    26    14    15    1
    27    14    24    1
    28    15    21   ar
    29    15    16   ar
    30    16    17   ar
    31    16    36    1
    32    17    18   ar
    33    17    37    1
    34    18    19    1
    35    18    20   ar
    36    20    21   ar
    37    20    38    1
    38    21    22    1
    39    22    23    3
    40    24    25    2
    41    24    39    1
    42    25    40    1
    43    26    41    1
@<TRIPOS>SUBSTRUCTURE
     1 ZINC000543020509        1 TEMP              0 ****  ****    0 ROOT


##########                                Name:    ZINC001362451754
##########                DOCK_Rotatable_Bonds:                   6
##########                         Heavy_Atoms:                  22
##########                    Molecular_Weight:             339.846
##########                DOCK_Rotatable_Bonds:                   6
##########                       Formal_Charge:         -0.00999987
##########                     HBond_Acceptors:                   7
##########                        HBond_Donors:                   1
##########                         Heavy_Atoms:                  22
##########                          Grid_Score:          -27.987812
##########                     Grid_vdw_energy:          -27.727221
##########                      Grid_es_energy:           -0.260591
##########           Internal_energy_repulsive:           14.438243

@<TRIPOS>MOLECULE
ZINC001362451754
 40 42 1 0 0
SMALL
USER_CHARGES


@<TRIPOS>ATOM
      1 C1        -12.2506    0.2513   52.9477 C.3     1  ZINC001362451754   -0.1700
      2 C2        -12.4070   -1.2699   52.9980 C.3     1  ZINC001362451754    0.1400
      3 H3        -13.2292   -1.5816   52.3539 H       1  ZINC001362451754    0.0800
      4 C4        -11.0974   -1.9475   52.5425 C.3     1  ZINC001362451754   -0.1000
      5 H5        -11.3090   -2.8603   51.9855 H       1  ZINC001362451754    0.1000
      6 C6        -10.2523   -0.9848   51.7058 C.3     1  ZINC001362451754    0.0900
      7 O7         -9.1161   -1.6775   51.1851 O.3     1  ZINC001362451754   -0.5700
      8 C8        -10.3904   -2.2745   53.8842 C.3     1  ZINC001362451754   -0.1200
      9 C9        -11.5916   -2.6243   54.7940 C.3     1  ZINC001362451754    0.0900
     10 N10       -12.6635   -1.7007   54.3801 N.am    1  ZINC001362451754   -0.6100
     11 C11       -13.7033   -1.3112   55.1440 C.2     1  ZINC001362451754    0.6100
     12 O12       -14.5325   -0.5412   54.6963 O.2     1  ZINC001362451754   -0.5200
     13 C13       -13.8352   -1.8150   56.5142 C.2     1  ZINC001362451754   -0.2500
     14 C14       -14.2242   -3.0785   56.8603 C.2     1  ZINC001362451754   -0.0500
     15 C15       -14.2684   -3.2807   58.2193 C.2     1  ZINC001362451754   -0.1100
     16 C16       -13.9179   -2.2243   58.9621 C.2     1  ZINC001362451754   -0.2500
     17 C17       -13.8870   -2.2121   60.4687 C.3     1  ZINC001362451754    0.2100
     18 N18       -12.5644   -1.7790   60.9265 N.pl3   1  ZINC001362451754   -0.3700
     19 C19       -11.3786   -2.2755   60.5131 C.2     1  ZINC001362451754    0.0700
     20 C20       -10.4008   -1.6083   61.1698 C.2     1  ZINC001362451754   -0.1800
     21 Cl21       -8.6929   -1.8651   60.9938 Cl      1  ZINC001362451754   -0.0400
     22 C22       -11.0104   -0.6792   62.0203 C.2     1  ZINC001362451754    0.0700
     23 N23       -12.3067   -0.7808   61.8751 N.2     1  ZINC001362451754   -0.2700
     24 S24       -13.5187   -0.8904   57.9760 S.3     1  ZINC001362451754    0.2300
     25 H25       -11.4308    0.5540   53.5992 H       1  ZINC001362451754    0.0600
     26 H26       -12.0351    0.5607   51.9250 H       1  ZINC001362451754    0.0700
     27 H27       -13.1743    0.7228   53.2831 H       1  ZINC001362451754    0.0700
     28 H28       -10.8513   -0.5980   50.8814 H       1  ZINC001362451754    0.0500
     29 H29        -9.9180   -0.1571   52.3315 H       1  ZINC001362451754    0.0500
     30 H30        -8.8100   -1.3443   50.3305 H       1  ZINC001362451754    0.3800
     31 H31        -9.7197   -3.1268   53.7748 H       1  ZINC001362451754    0.0900
     32 H32        -9.8549   -1.4051   54.2658 H       1  ZINC001362451754    0.0800
     33 H33       -11.3349   -2.4626   55.8410 H       1  ZINC001362451754    0.0800
     34 H34       -11.8981   -3.6578   54.6329 H       1  ZINC001362451754    0.0800
     35 H35       -14.4761   -3.8409   56.1380 H       1  ZINC001362451754    0.1600
     36 H36       -14.5610   -4.2244   58.6555 H       1  ZINC001362451754    0.1500
     37 H37       -14.6443   -1.5228   60.8421 H       1  ZINC001362451754    0.1100
     38 H38       -14.0912   -3.2146   60.8445 H       1  ZINC001362451754    0.1100
     39 H39       -11.2358   -3.0621   59.7869 H       1  ZINC001362451754    0.1800
     40 H40       -10.4990    0.0038   62.6825 H       1  ZINC001362451754    0.1900
@<TRIPOS>BOND
     1     1     2    1
     2     1    25    1
     3     1    26    1
     4     1    27    1
     5     2     3    1
     6     2    10    1
     7     2     4    1
     8     4     5    1
     9     4     6    1
    10     4     8    1
    11     6     7    1
    12     6    28    1
    13     6    29    1
    14     7    30    1
    15     8     9    1
    16     8    31    1
    17     8    32    1
    18     9    10    1
    19     9    33    1
    20     9    34    1
    21    10    11   am
    22    11    12    2
    23    11    13    1
    24    13    24    1
    25    13    14    2
    26    14    15    1
    27    14    35    1
    28    15    16    2
    29    15    36    1
    30    16    17    1
    31    16    24    1
    32    17    18    1
    33    17    37    1
    34    17    38    1
    35    18    23    1
    36    18    19    1
    37    19    20    2
    38    19    39    1
    39    20    21    1
    40    20    22    1
    41    22    23    2
    42    22    40    1
@<TRIPOS>SUBSTRUCTURE
     1 ZINC001362451754        1 TEMP              0 ****  ****    0 ROOT


##########                                Name:    ZINC000676564986
##########                DOCK_Rotatable_Bonds:                   5
##########                         Heavy_Atoms:                  25
##########                    Molecular_Weight:             347.444
##########                DOCK_Rotatable_Bonds:                   5
##########                       Formal_Charge:          -0.0100005
##########                     HBond_Acceptors:                   6
##########                        HBond_Donors:                   1
##########                         Heavy_Atoms:                  25
##########                          Grid_Score:          -27.971422
##########                     Grid_vdw_energy:          -27.416578
##########                      Grid_es_energy:           -0.554844
##########           Internal_energy_repulsive:            5.319284

@<TRIPOS>MOLECULE
ZINC000676564986
 42 45 1 0 0
SMALL
USER_CHARGES


@<TRIPOS>ATOM
      1 C1        -13.3383   -1.8103   62.1845 C.3     1  ZINC000676564986    0.0800
      2 N2        -12.6687   -2.0383   60.9015 N.pl3   1  ZINC000676564986   -0.4800
      3 C3        -11.3619   -1.7758   60.6157 C.2     1  ZINC000676564986    0.2500
      4 N4        -11.1029   -2.0991   59.3820 N.2     1  ZINC000676564986   -0.4600
      5 C5        -12.2238   -2.5883   58.7993 C.ar    1  ZINC000676564986   -0.1100
      6 C6        -12.5390   -3.0805   57.5215 C.ar    1  ZINC000676564986    0.5100
      7 N7        -11.5775   -3.1377   56.5278 N.pl3   1  ZINC000676564986   -0.6900
      8 C8        -11.9737   -3.0564   55.1198 C.3     1  ZINC000676564986    0.1700
      9 C9        -11.2869   -1.8819   54.4717 C.ar    1  ZINC000676564986   -0.0800
     10 C10       -11.3437   -0.6349   55.0672 C.ar    1  ZINC000676564986   -0.1100
     11 C11       -10.7156    0.4434   54.4762 C.ar    1  ZINC000676564986   -0.0700
     12 C12       -10.0259    0.2747   53.2816 C.ar    1  ZINC000676564986   -0.1300
     13 S13        -9.2225    1.6477   52.5242 S.3     1  ZINC000676564986   -0.0100
     14 C14        -8.9568    2.7466   53.8758 C.ar    1  ZINC000676564986   -0.1000
     15 C15        -8.0873    2.3927   54.9004 C.ar    1  ZINC000676564986   -0.1200
     16 C16        -7.8811    3.2565   55.9578 C.ar    1  ZINC000676564986   -0.1000
     17 C17        -8.5386    4.4725   55.9979 C.ar    1  ZINC000676564986   -0.1200
     18 C18        -9.4048    4.8280   54.9799 C.ar    1  ZINC000676564986   -0.1000
     19 C19        -9.6118    3.9715   53.9167 C.ar    1  ZINC000676564986   -0.1000
     20 C20        -9.9710   -0.9798   52.6861 C.ar    1  ZINC000676564986   -0.0700
     21 C21       -10.5966   -2.0548   53.2856 C.ar    1  ZINC000676564986   -0.1100
     22 N22       -13.7818   -3.4903   57.2895 N.ar    1  ZINC000676564986   -0.5900
     23 C23       -14.7056   -3.4400   58.2317 C.ar    1  ZINC000676564986    0.3600
     24 N24       -14.4562   -2.9864   59.4423 N.ar    1  ZINC000676564986   -0.5600
     25 C25       -13.2405   -2.5606   59.7689 C.ar    1  ZINC000676564986    0.3000
     26 H26       -13.2430   -2.6999   62.8071 H       1  ZINC000676564986    0.0800
     27 H27       -12.8764   -0.9621   62.6897 H       1  ZINC000676564986    0.0900
     28 H28       -14.3935   -1.5995   62.0112 H       1  ZINC000676564986    0.0900
     29 H29       -10.6471   -1.3602   61.3105 H       1  ZINC000676564986    0.2200
     30 H30       -10.6413   -3.2315   56.7635 H       1  ZINC000676564986    0.4200
     31 H31       -11.6849   -3.9742   54.6075 H       1  ZINC000676564986    0.0800
     32 H32       -13.0540   -2.9277   55.0530 H       1  ZINC000676564986    0.0800
     33 H33       -11.8801   -0.5044   55.9954 H       1  ZINC000676564986    0.1300
     34 H34       -10.7606    1.4170   54.9416 H       1  ZINC000676564986    0.1400
     35 H35        -7.5737    1.4431   54.8700 H       1  ZINC000676564986    0.1200
     36 H36        -7.2057    2.9820   56.7546 H       1  ZINC000676564986    0.1300
     37 H37        -8.3758    5.1460   56.8263 H       1  ZINC000676564986    0.1300
     38 H38        -9.9166    5.7783   55.0144 H       1  ZINC000676564986    0.1300
     39 H39       -10.2880    4.2498   53.1220 H       1  ZINC000676564986    0.1300
     40 H40        -9.4359   -1.1146   51.7577 H       1  ZINC000676564986    0.1300
     41 H41       -10.5544   -3.0299   52.8235 H       1  ZINC000676564986    0.1300
     42 H42       -15.7031   -3.7832   58.0006 H       1  ZINC000676564986    0.2000
@<TRIPOS>BOND
     1     1     2    1
     2     1    26    1
     3     1    27    1
     4     1    28    1
     5     2    25    1
     6     2     3    1
     7     3     4    2
     8     3    29    1
     9     4     5    1
    10     5    25   ar
    11     5     6   ar
    12     6     7    1
    13     6    22   ar
    14     7     8    1
    15     7    30    1
    16     8     9    1
    17     8    31    1
    18     8    32    1
    19     9    21   ar
    20     9    10   ar
    21    10    11   ar
    22    10    33    1
    23    11    12   ar
    24    11    34    1
    25    12    13    1
    26    12    20   ar
    27    13    14    1
    28    14    19   ar
    29    14    15   ar
    30    15    16   ar
    31    15    35    1
    32    16    17   ar
    33    16    36    1
    34    17    18   ar
    35    17    37    1
    36    18    19   ar
    37    18    38    1
    38    19    39    1
    39    20    21   ar
    40    20    40    1
    41    21    41    1
    42    22    23   ar
    43    23    24   ar
    44    23    42    1
    45    24    25   ar
@<TRIPOS>SUBSTRUCTURE
     1 ZINC000676564986        1 TEMP              0 ****  ****    0 ROOT


##########                                Name:    ZINC000269287897
##########                DOCK_Rotatable_Bonds:                   8
##########                         Heavy_Atoms:                  23
##########                    Molecular_Weight:             385.301
##########                DOCK_Rotatable_Bonds:                   8
##########                       Formal_Charge:           0.0300002
##########                     HBond_Acceptors:                   5
##########                        HBond_Donors:                   1
##########                         Heavy_Atoms:                  23
##########                          Grid_Score:          -27.915890
##########                     Grid_vdw_energy:          -26.180317
##########                      Grid_es_energy:           -1.735574
##########           Internal_energy_repulsive:            9.352542

@<TRIPOS>MOLECULE
ZINC000269287897
 48 49 1 0 0
SMALL
USER_CHARGES


@<TRIPOS>ATOM
      1 C1        -10.2855    0.2142   53.0241 C.3     1  ZINC000269287897    0.0300
      2 O2         -9.8213    1.5571   53.1765 O.3     1  ZINC000269287897   -0.3800
      3 C3         -8.4441    1.7376   52.8412 C.3     1  ZINC000269287897    0.0600
      4 C4         -8.0606    3.2063   53.0338 C.3     1  ZINC000269287897    0.0600
      5 O5         -6.6845    3.3878   52.6943 O.3     1  ZINC000269287897   -0.3800
      6 C6         -6.2514    4.7490   52.7308 C.3     1  ZINC000269287897    0.0700
      7 C7         -4.7443    4.8118   52.4750 C.3     1  ZINC000269287897   -0.1000
      8 H8         -4.4215    5.8389   52.3047 H       1  ZINC000269287897    0.1000
      9 C9         -3.9543    4.1672   53.6446 C.3     1  ZINC000269287897   -0.1200
     10 C10        -2.6480    3.7043   52.9657 C.3     1  ZINC000269287897    0.1000
     11 N11        -2.9272    3.5688   51.5286 N.am    1  ZINC000269287897   -0.6300
     12 C12        -2.0359    3.2021   50.5864 C.2     1  ZINC000269287897    0.7300
     13 O13        -0.8887    2.9496   50.9003 O.2     1  ZINC000269287897   -0.5600
     14 N14        -2.4164    3.1153   49.2965 N.am    1  ZINC000269287897   -0.6900
     15 C15        -1.4907    2.7344   48.3178 C.ar    1  ZINC000269287897    0.1800
     16 C16        -0.5894    3.6622   47.8142 C.ar    1  ZINC000269287897   -0.0600
     17 C17        -0.6062    5.0816   48.3204 C.3     1  ZINC000269287897   -0.1000
     18 C18         0.3234    3.2832   46.8488 C.ar    1  ZINC000269287897   -0.0900
     19 C19         0.3401    1.9813   46.3840 C.ar    1  ZINC000269287897   -0.0800
     20 C20         1.3372    1.5718   45.3308 C.3     1  ZINC000269287897   -0.1100
     21 C21        -0.5560    1.0537   46.8836 C.ar    1  ZINC000269287897   -0.0900
     22 C22        -1.4682    1.4250   47.8526 C.ar    1  ZINC000269287897   -0.1000
     23 Br23       -2.6927    0.1564   48.5359 Br      1  ZINC000269287897   -0.0500
     24 C24        -4.3440    3.9000   51.2884 C.3     1  ZINC000269287897    0.1400
     25 H25       -10.1636   -0.0968   51.9866 H       1  ZINC000269287897    0.0400
     26 H26        -9.7077   -0.4456   53.6714 H       1  ZINC000269287897    0.0400
     27 H27       -11.3391    0.1607   53.2982 H       1  ZINC000269287897    0.0900
     28 H28        -7.8278    1.1134   53.4882 H       1  ZINC000269287897    0.0600
     29 H29        -8.2830    1.4534   51.8013 H       1  ZINC000269287897    0.0600
     30 H30        -8.6792    3.8308   52.3893 H       1  ZINC000269287897    0.0700
     31 H31        -8.2185    3.4896   54.0744 H       1  ZINC000269287897    0.0600
     32 H32        -6.7744    5.3174   51.9616 H       1  ZINC000269287897    0.0600
     33 H33        -6.4718    5.1743   53.7099 H       1  ZINC000269287897    0.0500
     34 H34        -3.7456    4.9034   54.4209 H       1  ZINC000269287897    0.0900
     35 H35        -4.4983    3.3163   54.0547 H       1  ZINC000269287897    0.0800
     36 H36        -1.8653    4.4465   53.1229 H       1  ZINC000269287897    0.0700
     37 H37        -2.3378    2.7430   53.3753 H       1  ZINC000269287897    0.0700
     38 H38        -3.3316    3.3167   49.0461 H       1  ZINC000269287897    0.4100
     39 H39         0.1624    5.2043   49.0835 H       1  ZINC000269287897    0.0900
     40 H40        -0.4099    5.7644   47.4938 H       1  ZINC000269287897    0.0600
     41 H41        -1.5833    5.3025   48.7500 H       1  ZINC000269287897    0.0600
     42 H42         1.0245    4.0050   46.4566 H       1  ZINC000269287897    0.1300
     43 H43         2.2496    1.2192   45.8119 H       1  ZINC000269287897    0.0700
     44 H44         0.9151    0.7721   44.7222 H       1  ZINC000269287897    0.0700
     45 H45         1.5682    2.4277   44.6968 H       1  ZINC000269287897    0.0700
     46 H46        -0.5404    0.0375   46.5184 H       1  ZINC000269287897    0.1400
     47 H47        -4.9502    2.9941   51.2856 H       1  ZINC000269287897    0.0700
     48 H48        -4.4540    4.4338   50.3444 H       1  ZINC000269287897    0.0900
@<TRIPOS>BOND
     1     1     2    1
     2     1    25    1
     3     1    26    1
     4     1    27    1
     5     2     3    1
     6     3     4    1
     7     3    28    1
     8     3    29    1
     9     4     5    1
    10     4    30    1
    11     4    31    1
    12     5     6    1
    13     6     7    1
    14     6    32    1
    15     6    33    1
    16     7     8    1
    17     7    24    1
    18     7     9    1
    19     9    10    1
    20     9    34    1
    21     9    35    1
    22    10    11    1
    23    10    36    1
    24    10    37    1
    25    11    12   am
    26    11    24    1
    27    12    13    2
    28    12    14   am
    29    14    15    1
    30    14    38    1
    31    15    22   ar
    32    15    16   ar
    33    16    17    1
    34    16    18   ar
    35    17    39    1
    36    17    40    1
    37    17    41    1
    38    18    19   ar
    39    18    42    1
    40    19    20    1
    41    19    21   ar
    42    20    43    1
    43    20    44    1
    44    20    45    1
    45    21    22   ar
    46    21    46    1
    47    22    23    1
    48    24    47    1
    49    24    48    1
@<TRIPOS>SUBSTRUCTURE
     1 ZINC000269287897        1 TEMP              0 ****  ****    0 ROOT


##########                                Name:    ZINC000822449555
##########                DOCK_Rotatable_Bonds:                   5
##########                         Heavy_Atoms:                  27
##########                    Molecular_Weight:             366.383
##########                DOCK_Rotatable_Bonds:                   5
##########                       Formal_Charge:          -0.0100009
##########                     HBond_Acceptors:                  10
##########                        HBond_Donors:                   2
##########                         Heavy_Atoms:                  27
##########                          Grid_Score:          -27.893398
##########                     Grid_vdw_energy:          -25.966824
##########                      Grid_es_energy:           -1.926574
##########           Internal_energy_repulsive:            7.741556

@<TRIPOS>MOLECULE
ZINC000822449555
 45 48 1 0 0
SMALL
USER_CHARGES


@<TRIPOS>ATOM
      1 C1         -2.4557    1.1033   48.1809 C.3     1  ZINC000822449555   -0.1100
      2 C2         -2.1639    2.4503   48.7907 C.ar    1  ZINC000822449555    0.1400
      3 N3         -2.7163    2.7779   49.9430 N.ar    1  ZINC000822449555   -0.5000
      4 C4         -2.4885    3.9496   50.5154 C.ar    1  ZINC000822449555    0.3000
      5 N5         -3.0943    4.2506   51.7322 N.3     1  ZINC000822449555   -0.4700
      6 C6         -2.3716    3.6251   52.8494 C.3     1  ZINC000822449555    0.0200
      7 C7         -3.0342    4.0296   54.1689 C.3     1  ZINC000822449555    0.0600
      8 O8         -4.4138    3.6539   54.1386 O.3     1  ZINC000822449555   -0.3800
      9 C9         -5.1481    4.2456   53.0633 C.3     1  ZINC000822449555    0.0600
     10 C10        -4.5069    3.8434   51.7325 C.3     1  ZINC000822449555    0.0300
     11 C11        -1.6506    4.8832   49.9150 C.ar    1  ZINC000822449555   -0.1700
     12 C12        -1.0538    4.5745   48.7063 C.ar    1  ZINC000822449555   -0.0500
     13 C13        -1.3133    3.3289   48.1367 C.ar    1  ZINC000822449555    0.0600
     14 N14        -0.7304    2.9734   46.9132 N.am    1  ZINC000822449555   -0.6600
     15 C15         0.4268    2.2828   46.8934 C.2     1  ZINC000822449555    0.5700
     16 O16         0.9651    1.9685   47.9374 O.2     1  ZINC000822449555   -0.5100
     17 C17         1.0411    1.9081   45.6036 C.ar    1  ZINC000822449555   -0.1800
     18 C18         0.3533    2.1195   44.4010 C.ar    1  ZINC000822449555   -0.0100
     19 C19         0.9682    1.7530   43.2199 C.ar    1  ZINC000822449555   -0.1300
     20 C20         2.2427    1.1895   43.2625 C.ar    1  ZINC000822449555    0.2300
     21 C21         2.9103    0.7932   41.9987 C.2     1  ZINC000822449555    0.2100
     22 N22         2.4253    0.9181   40.7787 N.2     1  ZINC000822449555   -0.2500
     23 N23         3.3054    0.4608   39.9559 N.pl3   1  ZINC000822449555   -0.2200
     24 N24         4.3321    0.0501   40.6150 N.2     1  ZINC000822449555   -0.0400
     25 N25         4.1270    0.2433   41.8737 N.2     1  ZINC000822449555   -0.2500
     26 N26         2.8670    1.0034   44.4194 N.ar    1  ZINC000822449555   -0.4500
     27 C27         2.3181    1.3436   45.5649 C.ar    1  ZINC000822449555    0.1400
     28 H28        -1.7247    0.3773   48.5370 H       1  ZINC000822449555    0.0800
     29 H29        -3.4566    0.7828   48.4699 H       1  ZINC000822449555    0.0800
     30 H30        -2.3967    1.1756   47.0949 H       1  ZINC000822449555    0.0700
     31 H31        -2.4047    2.5409   52.7428 H       1  ZINC000822449555    0.0600
     32 H32        -1.3345    3.9605   52.8452 H       1  ZINC000822449555    0.1000
     33 H33        -2.5372    3.5228   54.9961 H       1  ZINC000822449555    0.1100
     34 H34        -2.9536    5.1086   54.3010 H       1  ZINC000822449555    0.0600
     35 H35        -6.1798    3.8951   53.0909 H       1  ZINC000822449555    0.1000
     36 H36        -5.1289    5.3308   53.1632 H       1  ZINC000822449555    0.0600
     37 H37        -5.0284    4.3378   50.9130 H       1  ZINC000822449555    0.1000
     38 H38        -4.5742    2.7625   51.6081 H       1  ZINC000822449555    0.0600
     39 H39        -1.4685    5.8375   50.3867 H       1  ZINC000822449555    0.1400
     40 H40        -0.3988    5.2802   48.2171 H       1  ZINC000822449555    0.1500
     41 H41        -1.1599    3.2242   46.0804 H       1  ZINC000822449555    0.4100
     42 H42        -0.6338    2.5577   44.3979 H       1  ZINC000822449555    0.1600
     43 H43         0.4675    1.9009   42.2745 H       1  ZINC000822449555    0.1600
     44 H44         3.2093    0.4307   38.9913 H       1  ZINC000822449555    0.4800
     45 H45         2.8569    1.1770   46.4860 H       1  ZINC000822449555    0.1700
@<TRIPOS>BOND
     1     1     2    1
     2     1    28    1
     3     1    29    1
     4     1    30    1
     5     2    13   ar
     6     2     3   ar
     7     3     4   ar
     8     4     5    1
     9     4    11   ar
    10     5    10    1
    11     5     6    1
    12     6     7    1
    13     6    31    1
    14     6    32    1
    15     7     8    1
    16     7    33    1
    17     7    34    1
    18     8     9    1
    19     9    10    1
    20     9    35    1
    21     9    36    1
    22    10    37    1
    23    10    38    1
    24    11    12   ar
    25    11    39    1
    26    12    13   ar
    27    12    40    1
    28    13    14    1
    29    14    15   am
    30    14    41    1
    31    15    16    2
    32    15    17    1
    33    17    27   ar
    34    17    18   ar
    35    18    19   ar
    36    18    42    1
    37    19    20   ar
    38    19    43    1
    39    20    21    1
    40    20    26   ar
    41    21    25    1
    42    21    22    2
    43    22    23    1
    44    23    24    1
    45    23    44    1
    46    24    25    2
    47    26    27   ar
    48    27    45    1
@<TRIPOS>SUBSTRUCTURE
     1 ZINC000822449555        1 TEMP              0 ****  ****    0 ROOT


##########                                Name:    ZINC000179743483
##########                DOCK_Rotatable_Bonds:                   5
##########                         Heavy_Atoms:                  23
##########                    Molecular_Weight:             393.347
##########                DOCK_Rotatable_Bonds:                   5
##########                       Formal_Charge:          -0.0199999
##########                     HBond_Acceptors:                   4
##########                        HBond_Donors:                   0
##########                         Heavy_Atoms:                  23
##########                          Grid_Score:          -27.848511
##########                     Grid_vdw_energy:          -27.303146
##########                      Grid_es_energy:           -0.545364
##########           Internal_energy_repulsive:           19.768175

@<TRIPOS>MOLECULE
ZINC000179743483
 44 46 1 0 0
SMALL
USER_CHARGES


@<TRIPOS>ATOM
      1 C1         -1.9244    3.1772   51.9628 C.3     1  ZINC000179743483   -0.1400
      2 C2         -2.8295    3.8804   50.9492 C.3     1  ZINC000179743483   -0.1000
      3 H3         -3.5524    3.1678   50.5518 H       1  ZINC000179743483    0.1000
      4 C4         -3.5705    5.0285   51.6376 C.3     1  ZINC000179743483   -0.0700
      5 C5         -4.4309    4.4782   52.7456 C.ar    1  ZINC000179743483   -0.0600
      6 C6         -4.0208    4.5931   54.0609 C.ar    1  ZINC000179743483   -0.1100
      7 C7         -4.8099    4.0889   55.0775 C.ar    1  ZINC000179743483   -0.0900
      8 C8         -6.0100    3.4693   54.7789 C.ar    1  ZINC000179743483   -0.0900
      9 Br9        -7.0903    2.7799   56.1694 Br      1  ZINC000179743483   -0.0500
     10 C10        -6.4199    3.3546   53.4627 C.ar    1  ZINC000179743483   -0.0900
     11 C11        -5.6327    3.8637   52.4471 C.ar    1  ZINC000179743483   -0.1100
     12 C12        -1.9918    4.4273   49.8222 C.2     1  ZINC000179743483    0.5200
     13 O13        -1.6896    5.6017   49.8060 O.2     1  ZINC000179743483   -0.5300
     14 N14        -1.5783    3.6114   48.8323 N.am    1  ZINC000179743483   -0.6100
     15 C15        -0.7611    4.1301   47.7270 C.3     1  ZINC000179743483    0.1000
     16 C16         0.5063    3.2778   47.6086 C.3     1  ZINC000179743483   -0.1400
     17 C17         0.1145    1.8055   47.4635 C.3     1  ZINC000179743483   -0.1100
     18 C18        -0.6556    1.3559   48.7072 C.3     1  ZINC000179743483   -0.0200
     19 H19        -0.0354    1.5018   49.5916 H       1  ZINC000179743483    0.0900
     20 C20        -1.0122   -0.1026   48.5780 C.2     1  ZINC000179743483    0.0500
     21 N21        -2.2144   -0.5709   48.5692 N.2     1  ZINC000179743483   -0.4700
     22 C22        -2.3499   -1.8762   48.4473 C.2     1  ZINC000179743483    0.0400
     23 C23        -1.1978   -2.5460   48.3478 C.2     1  ZINC000179743483   -0.2600
     24 S24         0.1176   -1.3755   48.4145 S.3     1  ZINC000179743483    0.1300
     25 C25        -1.9311    2.1851   48.8412 C.3     1  ZINC000179743483    0.1200
     26 H26        -1.1534    3.8687   52.3025 H       1  ZINC000179743483    0.0700
     27 H27        -2.5195    2.8491   52.8150 H       1  ZINC000179743483    0.0700
     28 H28        -1.4555    2.3127   51.4928 H       1  ZINC000179743483    0.0600
     29 H29        -2.8474    5.7301   52.0533 H       1  ZINC000179743483    0.0900
     30 H30        -4.1991    5.5427   50.9106 H       1  ZINC000179743483    0.0800
     31 H31        -3.0837    5.0765   54.2940 H       1  ZINC000179743483    0.1300
     32 H32        -4.4893    4.1784   56.1050 H       1  ZINC000179743483    0.1300
     33 H33        -7.3568    2.8709   53.2291 H       1  ZINC000179743483    0.1300
     34 H34        -5.9527    3.7742   51.4194 H       1  ZINC000179743483    0.1300
     35 H35        -1.3269    4.0747   46.7970 H       1  ZINC000179743483    0.0700
     36 H36        -0.4875    5.1656   47.9296 H       1  ZINC000179743483    0.0900
     37 H37         1.0749    3.5910   46.7330 H       1  ZINC000179743483    0.0800
     38 H38         1.1155    3.4056   48.5034 H       1  ZINC000179743483    0.0700
     39 H39        -0.5153    1.6826   46.5823 H       1  ZINC000179743483    0.0800
     40 H40         1.0138    1.1995   47.3544 H       1  ZINC000179743483    0.0700
     41 H41        -3.3131   -2.3644   48.4297 H       1  ZINC000179743483    0.1800
     42 H42        -1.0919   -3.6155   48.2414 H       1  ZINC000179743483    0.1800
     43 H43        -2.4316    1.9370   49.7772 H       1  ZINC000179743483    0.0900
     44 H44        -2.5943    1.9736   48.0025 H       1  ZINC000179743483    0.0800
@<TRIPOS>BOND
     1     1     2    1
     2     1    26    1
     3     1    27    1
     4     1    28    1
     5     2     3    1
     6     2     4    1
     7     2    12    1
     8     4     5    1
     9     4    29    1
    10     4    30    1
    11     5    11   ar
    12     5     6   ar
    13     6     7   ar
    14     6    31    1
    15     7     8   ar
    16     7    32    1
    17     8     9    1
    18     8    10   ar
    19    10    11   ar
    20    10    33    1
    21    11    34    1
    22    12    13    2
    23    12    14   am
    24    14    25    1
    25    14    15    1
    26    15    16    1
    27    15    35    1
    28    15    36    1
    29    16    17    1
    30    16    37    1
    31    16    38    1
    32    17    18    1
    33    17    39    1
    34    17    40    1
    35    18    19    1
    36    18    20    1
    37    18    25    1
    38    20    24    1
    39    20    21    2
    40    21    22    1
    41    22    23    2
    42    22    41    1
    43    23    24    1
    44    23    42    1
    45    25    43    1
    46    25    44    1
@<TRIPOS>SUBSTRUCTURE
     1 ZINC000179743483        1 TEMP              0 ****  ****    0 ROOT


##########                                Name:    ZINC000435292384
##########                DOCK_Rotatable_Bonds:                   6
##########                         Heavy_Atoms:                  22
##########                    Molecular_Weight:             326.503
##########                DOCK_Rotatable_Bonds:                   6
##########                       Formal_Charge:         -0.00999993
##########                     HBond_Acceptors:                   5
##########                        HBond_Donors:                   0
##########                         Heavy_Atoms:                  22
##########                          Grid_Score:          -27.822779
##########                     Grid_vdw_energy:          -27.592331
##########                      Grid_es_energy:           -0.230449
##########           Internal_energy_repulsive:           26.967669

@<TRIPOS>MOLECULE
ZINC000435292384
 52 53 1 0 0
SMALL
USER_CHARGES


@<TRIPOS>ATOM
      1 C1         -3.5072    3.5114   56.0071 C.3     1  ZINC000435292384   -0.1500
      2 C2         -2.8928    4.3700   54.8998 C.3     1  ZINC000435292384   -0.1200
      3 C3         -4.0030    5.1194   54.1602 C.3     1  ZINC000435292384   -0.1400
      4 C4         -3.3886    5.9770   53.0520 C.3     1  ZINC000435292384    0.1600
      5 H5         -2.6775    6.6788   53.4878 H       1  ZINC000435292384    0.0900
      6 C6         -4.4953    6.7519   52.3341 C.3     1  ZINC000435292384   -0.1700
      7 N7         -2.6965    5.1127   52.0927 N.am    1  ZINC000435292384   -0.6100
      8 C8         -3.3351    4.4932   50.9254 C.3     1  ZINC000435292384    0.1200
      9 C9         -2.1747    4.0613   50.0017 C.3     1  ZINC000435292384   -0.1300
     10 H10        -1.9451    4.8395   49.2740 H       1  ZINC000435292384    0.1100
     11 C11        -2.4901    2.7586   49.3127 C.2     1  ZINC000435292384    0.5200
     12 O12        -3.3648    2.0394   49.7467 O.2     1  ZINC000435292384   -0.5200
     13 N13        -1.8001    2.3929   48.2143 N.am    1  ZINC000435292384   -0.6000
     14 C14        -0.7418    3.2909   47.7119 C.3     1  ZINC000435292384    0.1000
     15 C15         0.5183    2.5186   47.2811 C.3     1  ZINC000435292384   -0.1300
     16 C16         0.8072    1.4093   48.2622 C.3     1  ZINC000435292384   -0.1100
     17 C17         0.1271    0.1276   47.7907 C.3     1  ZINC000435292384   -0.1200
     18 C18        -1.2795    0.0014   48.2020 C.3     1  ZINC000435292384   -0.0700
     19 H19        -1.3443    0.0593   49.2886 H       1  ZINC000435292384    0.0900
     20 S20        -1.9262   -1.5998   47.6466 S.3     1  ZINC000435292384   -0.2500
     21 C21        -0.9603   -2.7891   48.6178 C.3     1  ZINC000435292384   -0.1200
     22 C22        -2.1231    1.1345   47.5800 C.3     1  ZINC000435292384    0.1400
     23 C23        -1.0160    3.8881   51.0109 C.3     1  ZINC000435292384   -0.1400
     24 C24        -1.3937    4.7899   52.1653 C.2     1  ZINC000435292384    0.5200
     25 O25        -0.6333    5.1616   53.0339 O.2     1  ZINC000435292384   -0.5200
     26 H26        -2.7164    2.9775   56.5340 H       1  ZINC000435292384    0.0500
     27 H27        -4.0430    4.1514   56.7082 H       1  ZINC000435292384    0.0500
     28 H28        -4.2001    2.7935   55.5681 H       1  ZINC000435292384    0.0500
     29 H29        -2.1999    5.0878   55.3387 H       1  ZINC000435292384    0.0600
     30 H30        -2.3571    3.7299   54.1987 H       1  ZINC000435292384    0.0600
     31 H31        -4.6963    4.4016   53.7219 H       1  ZINC000435292384    0.0800
     32 H32        -4.5380    5.7601   54.8610 H       1  ZINC000435292384    0.0800
     33 H33        -5.2065    6.0501   51.8984 H       1  ZINC000435292384    0.0700
     34 H34        -5.0104    7.3949   53.0478 H       1  ZINC000435292384    0.0700
     35 H35        -4.0578    7.3628   51.5446 H       1  ZINC000435292384    0.0600
     36 H36        -3.9174    3.6240   51.2312 H       1  ZINC000435292384    0.0900
     37 H37        -3.9732    5.2157   50.4168 H       1  ZINC000435292384    0.0800
     38 H38        -1.1259    3.8469   46.8567 H       1  ZINC000435292384    0.0700
     39 H39        -0.4730    3.9960   48.4986 H       1  ZINC000435292384    0.0900
     40 H40         0.3602    2.0928   46.2902 H       1  ZINC000435292384    0.0700
     41 H41         1.3671    3.2017   47.2476 H       1  ZINC000435292384    0.0800
     42 H42         1.8837    1.2487   48.3229 H       1  ZINC000435292384    0.0700
     43 H43         0.4241    1.6840   49.2449 H       1  ZINC000435292384    0.0600
     44 H44         0.1739    0.0910   46.7023 H       1  ZINC000435292384    0.0800
     45 H45         0.6810   -0.7238   48.1862 H       1  ZINC000435292384    0.0600
     46 H46         0.0993   -2.6650   48.3945 H       1  ZINC000435292384    0.0800
     47 H47        -1.1306   -2.6142   49.6801 H       1  ZINC000435292384    0.0800
     48 H48        -1.2691   -3.8028   48.3623 H       1  ZINC000435292384    0.1000
     49 H49        -3.1819    0.9195   47.7235 H       1  ZINC000435292384    0.0900
     50 H50        -1.9084    1.2032   46.5135 H       1  ZINC000435292384    0.0900
     51 H51        -0.9475    2.8508   51.3387 H       1  ZINC000435292384    0.1100
     52 H52        -0.0738    4.2126   50.5693 H       1  ZINC000435292384    0.1100
@<TRIPOS>BOND
     1     1     2    1
     2     1    26    1
     3     1    27    1
     4     1    28    1
     5     2     3    1
     6     2    29    1
     7     2    30    1
     8     3     4    1
     9     3    31    1
    10     3    32    1
    11     4     5    1
    12     4     6    1
    13     4     7    1
    14     6    33    1
    15     6    34    1
    16     6    35    1
    17     7    24   am
    18     7     8    1
    19     8     9    1
    20     8    36    1
    21     8    37    1
    22     9    10    1
    23     9    11    1
    24     9    23    1
    25    11    12    2
    26    11    13   am
    27    13    22    1
    28    13    14    1
    29    14    15    1
    30    14    38    1
    31    14    39    1
    32    15    16    1
    33    15    40    1
    34    15    41    1
    35    16    17    1
    36    16    42    1
    37    16    43    1
    38    17    18    1
    39    17    44    1
    40    17    45    1
    41    18    19    1
    42    18    20    1
    43    18    22    1
    44    20    21    1
    45    21    46    1
    46    21    47    1
    47    21    48    1
    48    22    49    1
    49    22    50    1
    50    23    24    1
    51    23    51    1
    52    23    52    1
    53    24    25    2
@<TRIPOS>SUBSTRUCTURE
     1 ZINC000435292384        1 TEMP              0 ****  ****    0 ROOT


##########                                Name:    ZINC000629379364
##########                DOCK_Rotatable_Bonds:                   5
##########                         Heavy_Atoms:                  23
##########                    Molecular_Weight:             386.261
##########                DOCK_Rotatable_Bonds:                   5
##########                       Formal_Charge:               -0.02
##########                     HBond_Acceptors:                   5
##########                        HBond_Donors:                   1
##########                         Heavy_Atoms:                  23
##########                          Grid_Score:          -27.798912
##########                     Grid_vdw_energy:          -26.789248
##########                      Grid_es_energy:           -1.009665
##########           Internal_energy_repulsive:           27.817774

@<TRIPOS>MOLECULE
ZINC000629379364
 44 46 1 0 0
SMALL
USER_CHARGES


@<TRIPOS>ATOM
      1 O1         -3.1798    0.4078   46.8976 O.co2   1  ZINC000629379364   -0.6800
      2 C2         -2.1779   -0.2777   46.7853 C.2     1  ZINC000629379364    0.5000
      3 O3         -2.2734   -1.4473   46.4544 O.co2   1  ZINC000629379364   -0.6900
      4 C4         -0.8209    0.3222   47.0494 C.3     1  ZINC000629379364   -0.1600
      5 H5         -0.0418   -0.4058   46.8231 H       1  ZINC000629379364    0.0800
      6 C6         -0.7178    0.7626   48.5201 C.3     1  ZINC000629379364   -0.1300
      7 C7          0.5894    1.5038   48.7838 C.3     1  ZINC000629379364   -0.0100
      8 N8          0.7695    2.6426   47.8627 N.4     1  ZINC000629379364   -0.3700
      9 H9          1.6414    3.1098   48.0616 H       1  ZINC000629379364    0.4200
     10 C10        -0.3470    3.5857   48.0109 C.3     1  ZINC000629379364   -0.0200
     11 C11         0.1647    4.8890   48.6278 C.3     1  ZINC000629379364    0.0300
     12 O12         0.7331    4.6178   49.9105 O.3     1  ZINC000629379364   -0.3200
     13 C13        -0.1212    4.2350   50.8955 C.ar    1  ZINC000629379364    0.1600
     14 C14         0.3736    3.8444   52.1307 C.ar    1  ZINC000629379364   -0.2300
     15 C15        -0.4983    3.4551   53.1324 C.ar    1  ZINC000629379364    0.1500
     16 F16        -0.0174    3.0743   54.3362 F       1  ZINC000629379364   -0.1200
     17 C17        -1.8635    3.4559   52.9013 C.ar    1  ZINC000629379364   -0.1600
     18 C18        -2.3578    3.8450   51.6692 C.ar    1  ZINC000629379364   -0.0300
     19 Br19       -4.2229    3.8451   51.3568 Br      1  ZINC000629379364   -0.0100
     20 C20        -1.4900    4.2400   50.6684 C.ar    1  ZINC000629379364   -0.1300
     21 C21         0.7918    2.1098   46.5101 C.3     1  ZINC000629379364   -0.0100
     22 H22         1.5222    1.3038   46.4386 H       1  ZINC000629379364    0.1400
     23 C23         1.0172    3.1239   45.3838 C.3     1  ZINC000629379364   -0.1300
     24 C24         0.4240    2.4042   44.1422 C.3     1  ZINC000629379364   -0.1200
     25 C25        -0.6047    1.3798   44.6812 C.3     1  ZINC000629379364   -0.1100
     26 C26        -0.6298    1.5675   46.2006 C.3     1  ZINC000629379364   -0.0700
     27 H27        -1.3599    2.3311   46.4688 H       1  ZINC000629379364    0.1000
     28 H28        -1.5549    1.4197   48.7558 H       1  ZINC000629379364    0.0800
     29 H29        -0.7647   -0.1179   49.1609 H       1  ZINC000629379364    0.1100
     30 H30         0.5874    1.8735   49.8093 H       1  ZINC000629379364    0.1200
     31 H31         1.4217    0.8113   48.6592 H       1  ZINC000629379364    0.1300
     32 H32        -0.7802    3.7925   47.0322 H       1  ZINC000629379364    0.1400
     33 H33        -1.1068    3.1503   48.6599 H       1  ZINC000629379364    0.1700
     34 H34         0.9241    5.3247   47.9785 H       1  ZINC000629379364    0.1100
     35 H35        -0.6638    5.5886   48.7382 H       1  ZINC000629379364    0.0900
     36 H36         1.4385    3.8439   52.3107 H       1  ZINC000629379364    0.1500
     37 H37        -2.5432    3.1523   53.6838 H       1  ZINC000629379364    0.1500
     38 H38        -1.8770    4.5440   49.7070 H       1  ZINC000629379364    0.1500
     39 H39         0.4795    4.0502   45.5858 H       1  ZINC000629379364    0.0800
     40 H40         2.0811    3.3166   45.2458 H       1  ZINC000629379364    0.0900
     41 H41        -0.0717    3.1258   43.4929 H       1  ZINC000629379364    0.0800
     42 H42         1.2138    1.8890   43.5956 H       1  ZINC000629379364    0.0800
     43 H43        -1.5879    1.5702   44.2510 H       1  ZINC000629379364    0.0900
     44 H44        -0.2818    0.3643   44.4518 H       1  ZINC000629379364    0.0800
@<TRIPOS>BOND
     1     1     2   ar
     2     2     3   ar
     3     2     4    1
     4     4     5    1
     5     4    26    1
     6     4     6    1
     7     6     7    1
     8     6    28    1
     9     6    29    1
    10     7     8    1
    11     7    30    1
    12     7    31    1
    13     8     9    1
    14     8    10    1
    15     8    21    1
    16    10    11    1
    17    10    32    1
    18    10    33    1
    19    11    12    1
    20    11    34    1
    21    11    35    1
    22    12    13    1
    23    13    20   ar
    24    13    14   ar
    25    14    15   ar
    26    14    36    1
    27    15    16    1
    28    15    17   ar
    29    17    18   ar
    30    17    37    1
    31    18    19    1
    32    18    20   ar
    33    20    38    1
    34    21    22    1
    35    21    26    1
    36    21    23    1
    37    23    24    1
    38    23    39    1
    39    23    40    1
    40    24    25    1
    41    24    41    1
    42    24    42    1
    43    25    26    1
    44    25    43    1
    45    25    44    1
    46    26    27    1
@<TRIPOS>SUBSTRUCTURE
     1 ZINC000629379364        1 TEMP              0 ****  ****    0 ROOT


##########                                Name:    ZINC000847397179
##########                DOCK_Rotatable_Bonds:                   9
##########                         Heavy_Atoms:                  25
##########                    Molecular_Weight:             350.461
##########                DOCK_Rotatable_Bonds:                   9
##########                       Formal_Charge:          0.00999979
##########                     HBond_Acceptors:                   7
##########                        HBond_Donors:                   2
##########                         Heavy_Atoms:                  25
##########                          Grid_Score:          -27.793921
##########                     Grid_vdw_energy:          -27.802275
##########                      Grid_es_energy:            0.008354
##########           Internal_energy_repulsive:           85.558868

@<TRIPOS>MOLECULE
ZINC000847397179
 55 56 1 0 0
SMALL
USER_CHARGES


@<TRIPOS>ATOM
      1 C1         -1.2590   -1.8533   48.3604 C.3     1  ZINC000847397179   -0.1500
      2 C2         -1.1003   -0.5803   47.5267 C.3     1  ZINC000847397179   -0.1000
      3 H3         -1.4473   -0.7660   46.5103 H       1  ZINC000847397179    0.0900
      4 C4          0.3737   -0.1715   47.4957 C.3     1  ZINC000847397179   -0.0200
      5 C5          0.6151    0.7495   46.3276 C.2     1  ZINC000847397179    0.0100
      6 C6          1.7348    0.8045   45.5815 C.2     1  ZINC000847397179   -0.0500
      7 N7          1.5320    1.7710   44.6335 N.pl3   1  ZINC000847397179   -0.5700
      8 C8          0.2946    2.2732   44.8336 C.2     1  ZINC000847397179    0.1800
      9 N9         -0.2497    1.6541   45.8452 N.2     1  ZINC000847397179   -0.4900
     10 C10        -1.9161    0.5277   48.1415 C.2     1  ZINC000847397179    0.5200
     11 O11        -3.0552    0.7190   47.7717 O.2     1  ZINC000847397179   -0.5300
     12 N12        -1.3798    1.3059   49.1024 N.am    1  ZINC000847397179   -0.7400
     13 C13        -2.1722    2.3841   49.6988 C.3     1  ZINC000847397179    0.1200
     14 C14        -1.2348    3.4396   50.2889 C.3     1  ZINC000847397179    0.1500
     15 H15        -0.6798    3.0101   51.1228 H       1  ZINC000847397179    0.0800
     16 C16        -0.2556    3.9165   49.2116 C.3     1  ZINC000847397179   -0.1300
     17 C17         0.5857    5.0683   49.7663 C.3     1  ZINC000847397179   -0.1200
     18 C18        -0.3294    6.2371   50.1391 C.3     1  ZINC000847397179   -0.1400
     19 C19        -1.3093    5.7865   51.2269 C.3     1  ZINC000847397179    0.1100
     20 N20        -2.0206    4.5883   50.7597 N.am    1  ZINC000847397179   -0.5900
     21 C21        -3.3676    4.5461   50.7585 C.2     1  ZINC000847397179    0.6500
     22 O22        -3.9440    3.5496   50.3697 O.2     1  ZINC000847397179   -0.5500
     23 O23        -4.0748    5.6083   51.1880 O.3     1  ZINC000847397179   -0.3600
     24 C24        -4.8374    5.4411   52.4123 C.3     1  ZINC000847397179    0.1400
     25 C25        -5.0063    6.7987   53.0974 C.3     1  ZINC000847397179   -0.1800
     26 C26        -6.2143    4.8625   52.0805 C.3     1  ZINC000847397179   -0.1400
     27 C27        -4.0950    4.4859   53.3491 C.3     1  ZINC000847397179   -0.1800
     28 H28        -0.9120   -1.6677   49.3768 H       1  ZINC000847397179    0.0500
     29 H29        -2.3092   -2.1446   48.3825 H       1  ZINC000847397179    0.0500
     30 H30        -0.6689   -2.6548   47.9157 H       1  ZINC000847397179    0.1000
     31 H31         0.6278    0.3428   48.4226 H       1  ZINC000847397179    0.0800
     32 H32         0.9953   -1.0609   47.3916 H       1  ZINC000847397179    0.0800
     33 H33         2.6224    0.2022   45.7070 H       1  ZINC000847397179    0.1800
     34 H34         2.1599    2.0441   43.9465 H       1  ZINC000847397179    0.4200
     35 H35        -0.1694    3.0550   44.2504 H       1  ZINC000847397179    0.2100
     36 H36        -0.4692    1.1520   49.3989 H       1  ZINC000847397179    0.3900
     37 H37        -2.7981    2.8415   48.9327 H       1  ZINC000847397179    0.0800
     38 H38        -2.8036    1.9768   50.4885 H       1  ZINC000847397179    0.1000
     39 H39         0.3988    3.0934   48.9246 H       1  ZINC000847397179    0.0800
     40 H40        -0.8127    4.2599   48.3399 H       1  ZINC000847397179    0.0700
     41 H41         1.1233    4.7313   50.6526 H       1  ZINC000847397179    0.0700
     42 H42         1.3001    5.3933   49.0100 H       1  ZINC000847397179    0.0700
     43 H43         0.2725    7.0657   50.5122 H       1  ZINC000847397179    0.0800
     44 H44        -0.8858    6.5586   49.2586 H       1  ZINC000847397179    0.0700
     45 H45        -0.7603    5.5507   52.1384 H       1  ZINC000847397179    0.0700
     46 H46        -2.0264    6.5830   51.4254 H       1  ZINC000847397179    0.0900
     47 H47        -5.5350    7.4792   52.4301 H       1  ZINC000847397179    0.0600
     48 H48        -5.5786    6.6732   54.0165 H       1  ZINC000847397179    0.0700
     49 H49        -4.0252    7.2109   53.3337 H       1  ZINC000847397179    0.0900
     50 H50        -6.0940    3.8953   51.5925 H       1  ZINC000847397179    0.0700
     51 H51        -6.7867    4.7370   52.9996 H       1  ZINC000847397179    0.0800
     52 H52        -6.7432    5.5430   51.4132 H       1  ZINC000847397179    0.0700
     53 H53        -3.1140    4.8982   53.5855 H       1  ZINC000847397179    0.0900
     54 H54        -4.6674    4.3605   54.2682 H       1  ZINC000847397179    0.0700
     55 H55        -3.9747    3.5188   52.8610 H       1  ZINC000847397179    0.0600
@<TRIPOS>BOND
     1     1     2    1
     2     1    28    1
     3     1    29    1
     4     1    30    1
     5     2     3    1
     6     2     4    1
     7     2    10    1
     8     4     5    1
     9     4    31    1
    10     4    32    1
    11     5     9    1
    12     5     6    2
    13     6     7    1
    14     6    33    1
    15     7     8    1
    16     7    34    1
    17     8     9    2
    18     8    35    1
    19    10    11    2
    20    10    12   am
    21    12    13    1
    22    12    36    1
    23    13    14    1
    24    13    37    1
    25    13    38    1
    26    14    15    1
    27    14    20    1
    28    14    16    1
    29    16    17    1
    30    16    39    1
    31    16    40    1
    32    17    18    1
    33    17    41    1
    34    17    42    1
    35    18    19    1
    36    18    43    1
    37    18    44    1
    38    19    20    1
    39    19    45    1
    40    19    46    1
    41    20    21   am
    42    21    22    2
    43    21    23    1
    44    23    24    1
    45    24    25    1
    46    24    26    1
    47    24    27    1
    48    25    47    1
    49    25    48    1
    50    25    49    1
    51    26    50    1
    52    26    51    1
    53    26    52    1
    54    27    53    1
    55    27    54    1
    56    27    55    1
@<TRIPOS>SUBSTRUCTURE
     1 ZINC000847397179        1 TEMP              0 ****  ****    0 ROOT


##########                                Name:    ZINC000469391664
##########                DOCK_Rotatable_Bonds:                   6
##########                         Heavy_Atoms:                  29
##########                    Molecular_Weight:             408.524
##########                DOCK_Rotatable_Bonds:                   6
##########                       Formal_Charge:         -0.00999999
##########                     HBond_Acceptors:                   7
##########                        HBond_Donors:                   0
##########                         Heavy_Atoms:                  29
##########                          Grid_Score:          -27.791145
##########                     Grid_vdw_energy:          -26.567362
##########                      Grid_es_energy:           -1.223784
##########           Internal_energy_repulsive:           16.744717

@<TRIPOS>MOLECULE
ZINC000469391664
 53 56 1 0 0
SMALL
USER_CHARGES


@<TRIPOS>ATOM
      1 C1        -10.6540   -1.4142   52.3347 C.3     1  ZINC000469391664   -0.1500
      2 C2        -10.6663   -1.1687   53.8448 C.3     1  ZINC000469391664   -0.1000
      3 H3         -9.6568   -1.2832   54.2395 H       1  ZINC000469391664    0.0800
      4 C4        -11.5951   -2.1815   54.5184 C.3     1  ZINC000469391664   -0.1300
      5 C5        -11.5782   -1.9549   56.0334 C.3     1  ZINC000469391664    0.1100
      6 N6        -11.9169   -0.5513   56.3055 N.am    1  ZINC000469391664   -0.6100
      7 C7        -12.9176   -0.2381   57.1523 C.2     1  ZINC000469391664    0.5600
      8 O8        -13.1883    0.9273   57.3692 O.2     1  ZINC000469391664   -0.5000
      9 C9        -13.6844   -1.3092   57.8160 C.ar    1  ZINC000469391664   -0.1100
     10 C10       -14.6545   -2.0214   57.1073 C.ar    1  ZINC000469391664   -0.0900
     11 C11       -15.3673   -3.0214   57.7331 C.ar    1  ZINC000469391664   -0.1000
     12 C12       -15.1272   -3.3246   59.0634 C.ar    1  ZINC000469391664   -0.0900
     13 C13       -14.1719   -2.6291   59.7772 C.ar    1  ZINC000469391664   -0.1000
     14 C14       -13.4396   -1.6227   59.1618 C.ar    1  ZINC000469391664    0.1500
     15 N15       -12.4760   -0.9202   59.8794 N.am    1  ZINC000469391664   -0.5800
     16 C16       -12.8432    0.3048   60.5940 C.3     1  ZINC000469391664    0.0900
     17 C17       -11.2049   -1.3670   59.9168 C.2     1  ZINC000469391664    0.6100
     18 O18       -10.8999   -2.3847   59.3230 O.2     1  ZINC000469391664   -0.5200
     19 C19       -10.1904   -0.6275   60.6723 C.2     1  ZINC000469391664   -0.2600
     20 C20       -10.0256   -0.6682   62.0287 C.2     1  ZINC000469391664   -0.0500
     21 C21        -8.9949    0.1244   62.4749 C.2     1  ZINC000469391664   -0.1500
     22 C22        -8.3372    0.7918   61.5195 C.2     1  ZINC000469391664   -0.2600
     23 S23        -8.9850    0.4486   59.9789 S.3     1  ZINC000469391664    0.2300
     24 C24       -11.1440    0.5043   55.6372 C.3     1  ZINC000469391664    0.1000
     25 C25       -11.1661    0.2501   54.1266 C.3     1  ZINC000469391664    0.1300
     26 H26       -12.1849    0.3579   53.7544 H       1  ZINC000469391664    0.1000
     27 N27       -10.2951    1.2180   53.4550 N.pl3   1  ZINC000469391664   -0.4500
     28 C28        -8.9862    1.4798   53.7582 C.2     1  ZINC000469391664   -0.0500
     29 C29        -8.5700    2.4300   52.8993 C.2     1  ZINC000469391664   -0.0300
     30 N30        -9.5967    2.7398   52.0939 N.2     1  ZINC000469391664   -0.4900
     31 C31       -10.6319    2.0141   52.4175 C.2     1  ZINC000469391664    0.1800
     32 H32        -9.9921   -0.6933   51.8548 H       1  ZINC000469391664    0.0600
     33 H33       -10.2976   -2.4245   52.1338 H       1  ZINC000469391664    0.0600
     34 H34       -11.6634   -1.2997   51.9397 H       1  ZINC000469391664    0.0600
     35 H35       -12.6098   -2.0507   54.1424 H       1  ZINC000469391664    0.0700
     36 H36       -11.2523   -3.1923   54.2980 H       1  ZINC000469391664    0.0900
     37 H37       -12.3115   -2.6065   56.5085 H       1  ZINC000469391664    0.1000
     38 H38       -10.5845   -2.1733   56.4245 H       1  ZINC000469391664    0.0800
     39 H39       -14.8460   -1.7885   56.0704 H       1  ZINC000469391664    0.1400
     40 H40       -16.1170   -3.5712   57.1836 H       1  ZINC000469391664    0.1400
     41 H41       -15.6912   -4.1097   59.5451 H       1  ZINC000469391664    0.1400
     42 H42       -13.9909   -2.8711   60.8140 H       1  ZINC000469391664    0.1400
     43 H43       -13.0675    0.0657   61.6335 H       1  ZINC000469391664    0.0600
     44 H44       -12.0138    1.0110   60.5545 H       1  ZINC000469391664    0.0900
     45 H45       -13.7214    0.7492   60.1258 H       1  ZINC000469391664    0.0700
     46 H46       -10.6438   -1.2634   62.6844 H       1  ZINC000469391664    0.1500
     47 H47        -8.7352    0.2030   63.5203 H       1  ZINC000469391664    0.1400
     48 H48        -7.5046    1.4558   61.6993 H       1  ZINC000469391664    0.1600
     49 H49       -11.5907    1.4753   55.8508 H       1  ZINC000469391664    0.1000
     50 H50       -10.1148    0.4864   55.9959 H       1  ZINC000469391664    0.0800
     51 H51        -8.4001    1.0143   54.5367 H       1  ZINC000469391664    0.1700
     52 H52        -7.5825    2.8661   52.8653 H       1  ZINC000469391664    0.1700
     53 H53       -11.5996    2.0492   51.9393 H       1  ZINC000469391664    0.2000
@<TRIPOS>BOND
     1     1     2    1
     2     1    32    1
     3     1    33    1
     4     1    34    1
     5     2     3    1
     6     2    25    1
     7     2     4    1
     8     4     5    1
     9     4    35    1
    10     4    36    1
    11     5     6    1
    12     5    37    1
    13     5    38    1
    14     6     7   am
    15     6    24    1
    16     7     8    2
    17     7     9    1
    18     9    14   ar
    19     9    10   ar
    20    10    11   ar
    21    10    39    1
    22    11    12   ar
    23    11    40    1
    24    12    13   ar
    25    12    41    1
    26    13    14   ar
    27    13    42    1
    28    14    15    1
    29    15    16    1
    30    15    17   am
    31    16    43    1
    32    16    44    1
    33    16    45    1
    34    17    18    2
    35    17    19    1
    36    19    23    1
    37    19    20    2
    38    20    21    1
    39    20    46    1
    40    21    22    2
    41    21    47    1
    42    22    23    1
    43    22    48    1
    44    24    25    1
    45    24    49    1
    46    24    50    1
    47    25    26    1
    48    25    27    1
    49    27    31    1
    50    27    28    1
    51    28    29    2
    52    28    51    1
    53    29    30    1
    54    29    52    1
    55    30    31    2
    56    31    53    1
@<TRIPOS>SUBSTRUCTURE
     1 ZINC000469391664        1 TEMP              0 ****  ****    0 ROOT


##########                                Name:    ZINC000581017854
##########                DOCK_Rotatable_Bonds:                   6
##########                         Heavy_Atoms:                  24
##########                    Molecular_Weight:             330.334
##########                DOCK_Rotatable_Bonds:                   6
##########                       Formal_Charge:           0.0099998
##########                     HBond_Acceptors:                   6
##########                        HBond_Donors:                   2
##########                         Heavy_Atoms:                  24
##########                          Grid_Score:          -27.787678
##########                     Grid_vdw_energy:          -25.291571
##########                      Grid_es_energy:           -2.496108
##########           Internal_energy_repulsive:            8.908351

@<TRIPOS>MOLECULE
ZINC000581017854
 40 42 1 0 0
SMALL
USER_CHARGES


@<TRIPOS>ATOM
      1 C1         -3.9832    5.2024   52.3941 C.3     1  ZINC000581017854   -0.1600
      2 C2         -2.6729    4.4127   52.3711 C.3     1  ZINC000581017854    0.1500
      3 H3         -1.8714    5.0495   51.9966 H       1  ZINC000581017854    0.1100
      4 C4         -2.3336    3.9463   53.7882 C.3     1  ZINC000581017854    0.0500
      5 O5         -1.0823    3.2563   53.7758 O.3     1  ZINC000581017854   -0.3100
      6 C6         -0.6097    2.8140   54.9708 C.ar    1  ZINC000581017854    0.1600
      7 C7         -1.3479    3.0170   56.1276 C.ar    1  ZINC000581017854   -0.2200
      8 C8         -0.8665    2.5668   57.3421 C.ar    1  ZINC000581017854   -0.0500
      9 C9          0.3503    1.9147   57.4062 C.ar    1  ZINC000581017854   -0.1900
     10 C10         1.0904    1.7106   56.2532 C.ar    1  ZINC000581017854    0.1400
     11 F11         2.2796    1.0729   56.3179 F       1  ZINC000581017854   -0.1300
     12 C12         0.6086    2.1539   55.0344 C.ar    1  ZINC000581017854   -0.1900
     13 N13        -2.8203    3.2474   51.4956 N.am    1  ZINC000581017854   -0.7300
     14 C14        -2.4675    3.3308   50.1976 C.2     1  ZINC000581017854    0.5900
     15 O15        -2.0279    4.3743   49.7525 O.2     1  ZINC000581017854   -0.5400
     16 C16        -2.6138    2.1617   49.3201 C.2     1  ZINC000581017854   -0.2200
     17 C17        -3.3615    1.0477   49.5626 C.2     1  ZINC000581017854    0.1100
     18 N18        -3.2492    0.1850   48.5236 N.pl3   1  ZINC000581017854   -0.5700
     19 C19        -2.4172    0.7051   47.5536 C.ar    1  ZINC000581017854    0.1100
     20 C20        -1.9813    0.2322   46.3206 C.ar    1  ZINC000581017854   -0.1600
     21 C21        -1.1279    0.9978   45.5524 C.ar    1  ZINC000581017854    0.1200
     22 F22        -0.7073    0.5347   44.3550 F       1  ZINC000581017854   -0.1400
     23 C23        -0.6980    2.2409   45.9994 C.ar    1  ZINC000581017854   -0.1700
     24 C24        -1.1200    2.7247   47.2184 C.ar    1  ZINC000581017854   -0.0300
     25 C25        -1.9857    1.9645   48.0003 C.ar    1  ZINC000581017854   -0.0700
     26 H26        -3.8735    6.0695   53.0455 H       1  ZINC000581017854    0.0700
     27 H27        -4.2249    5.5346   51.3846 H       1  ZINC000581017854    0.0700
     28 H28        -4.7847    4.5656   52.7687 H       1  ZINC000581017854    0.0700
     29 H29        -2.2652    4.8108   54.4486 H       1  ZINC000581017854    0.0700
     30 H30        -3.1147    3.2759   54.1469 H       1  ZINC000581017854    0.0800
     31 H31        -2.2986    3.5270   56.0791 H       1  ZINC000581017854    0.1400
     32 H32        -1.4416    2.7252   58.2425 H       1  ZINC000581017854    0.1400
     33 H33         0.7249    1.5640   58.3566 H       1  ZINC000581017854    0.1400
     34 H34         1.1850    1.9949   54.1350 H       1  ZINC000581017854    0.1400
     35 H35        -3.1720    2.4158   51.8502 H       1  ZINC000581017854    0.4000
     36 H36        -3.9542    0.8783   50.4494 H       1  ZINC000581017854    0.1800
     37 H37        -3.6910   -0.6770   48.4696 H       1  ZINC000581017854    0.4200
     38 H38        -2.3098   -0.7331   45.9647 H       1  ZINC000581017854    0.1400
     39 H39        -0.0298    2.8302   45.3890 H       1  ZINC000581017854    0.1400
     40 H40        -0.7841    3.6912   47.5641 H       1  ZINC000581017854    0.1500
@<TRIPOS>BOND
     1     1     2    1
     2     1    26    1
     3     1    27    1
     4     1    28    1
     5     2     3    1
     6     2     4    1
     7     2    13    1
     8     4     5    1
     9     4    29    1
    10     4    30    1
    11     5     6    1
    12     6    12   ar
    13     6     7   ar
    14     7     8   ar
    15     7    31    1
    16     8     9   ar
    17     8    32    1
    18     9    10   ar
    19     9    33    1
    20    10    11    1
    21    10    12   ar
    22    12    34    1
    23    13    14   am
    24    13    35    1
    25    14    15    2
    26    14    16    1
    27    16    25    1
    28    16    17    2
    29    17    18    1
    30    17    36    1
    31    18    19    1
    32    18    37    1
    33    19    25   ar
    34    19    20   ar
    35    20    21   ar
    36    20    38    1
    37    21    22    1
    38    21    23   ar
    39    23    24   ar
    40    23    39    1
    41    24    25   ar
    42    24    40    1
@<TRIPOS>SUBSTRUCTURE
     1 ZINC000581017854        1 TEMP              0 ****  ****    0 ROOT


##########                                Name:    ZINC000623581528
##########                DOCK_Rotatable_Bonds:                   5
##########                         Heavy_Atoms:                  26
##########                    Molecular_Weight:             355.369
##########                DOCK_Rotatable_Bonds:                   5
##########                       Formal_Charge:        -4.47035e-07
##########                     HBond_Acceptors:                   7
##########                        HBond_Donors:                   2
##########                         Heavy_Atoms:                  26
##########                          Grid_Score:          -27.741789
##########                     Grid_vdw_energy:          -26.950583
##########                      Grid_es_energy:           -0.791206
##########           Internal_energy_repulsive:            5.022763

@<TRIPOS>MOLECULE
ZINC000623581528
 44 47 1 0 0
SMALL
USER_CHARGES


@<TRIPOS>ATOM
      1 C1         -2.2324   -1.5470   48.0707 C.3     1  ZINC000623581528    0.1000
      2 N2         -1.8998   -0.6909   46.9293 N.am    1  ZINC000623581528   -0.5500
      3 C3         -2.1762   -0.9453   45.6350 C.2     1  ZINC000623581528    0.6300
      4 O4         -2.7489   -1.9346   45.2206 O.2     1  ZINC000623581528   -0.4800
      5 O5         -1.7212    0.0627   44.8742 O.3     1  ZINC000623581528   -0.2300
      6 C6         -1.1386    0.9930   45.6694 C.ar    1  ZINC000623581528    0.0400
      7 C7         -0.5202    2.2055   45.4088 C.ar    1  ZINC000623581528   -0.0800
      8 C8         -0.0072    2.9552   46.4499 C.ar    1  ZINC000623581528   -0.0900
      9 C9         -0.1073    2.5010   47.7531 C.ar    1  ZINC000623581528   -0.0900
     10 C10         0.4554    3.3260   48.8817 C.3     1  ZINC000623581528    0.1800
     11 N11        -0.5336    4.3236   49.2976 N.am    1  ZINC000623581528   -0.7400
     12 C12        -1.4707    4.0031   50.2118 C.2     1  ZINC000623581528    0.7100
     13 O13        -1.4962    2.8856   50.6902 O.2     1  ZINC000623581528   -0.5800
     14 N14        -2.3795    4.9214   50.5955 N.am    1  ZINC000623581528   -0.7300
     15 C15        -3.3970    4.5735   51.5905 C.3     1  ZINC000623581528    0.2000
     16 H16        -3.6113    3.5055   51.5539 H       1  ZINC000623581528    0.1000
     17 C17        -4.6857    5.3870   51.3456 C.3     1  ZINC000623581528   -0.1300
     18 C18        -4.4771    6.6189   52.2518 C.3     1  ZINC000623581528   -0.0800
     19 C19        -3.5554    6.1471   53.3559 C.ar    1  ZINC000623581528   -0.1000
     20 C20        -3.2820    6.7027   54.5946 C.ar    1  ZINC000623581528   -0.0800
     21 C21        -2.3917    6.0867   55.4521 C.ar    1  ZINC000623581528   -0.1400
     22 C22        -1.7697    4.9097   55.0726 C.ar    1  ZINC000623581528    0.0900
     23 F23        -0.8987    4.3043   55.9093 F       1  ZINC000623581528   -0.1400
     24 C24        -2.0420    4.3540   53.8349 C.ar    1  ZINC000623581528   -0.1200
     25 C25        -2.9335    4.9691   52.9761 C.ar    1  ZINC000623581528   -0.0900
     26 C26        -0.7221    1.2932   48.0226 C.ar    1  ZINC000623581528   -0.0800
     27 C27        -1.2447    0.5390   46.9842 C.ar    1  ZINC000623581528    0.0700
     28 H28        -3.2198   -1.2817   48.4484 H       1  ZINC000623581528    0.0800
     29 H29        -2.2326   -2.5902   47.7545 H       1  ZINC000623581528    0.0900
     30 H30        -1.4922   -1.4063   48.8584 H       1  ZINC000623581528    0.0900
     31 H31        -0.4391    2.5638   44.3933 H       1  ZINC000623581528    0.1500
     32 H32         0.4745    3.8999   46.2456 H       1  ZINC000623581528    0.1500
     33 H33         0.6922    2.6760   49.7240 H       1  ZINC000623581528    0.0800
     34 H34         1.3615    3.8307   48.5462 H       1  ZINC000623581528    0.0800
     35 H35        -0.5140    5.2148   48.9150 H       1  ZINC000623581528    0.4000
     36 H36        -2.3600    5.8125   50.2129 H       1  ZINC000623581528    0.4000
     37 H37        -4.7634    5.6841   50.2998 H       1  ZINC000623581528    0.0900
     38 H38        -5.5650    4.8225   51.6556 H       1  ZINC000623581528    0.0900
     39 H39        -4.0104    7.4276   51.6893 H       1  ZINC000623581528    0.0800
     40 H40        -5.4293    6.9475   52.6684 H       1  ZINC000623581528    0.0800
     41 H41        -3.7669    7.6209   54.8912 H       1  ZINC000623581528    0.1300
     42 H42        -2.1809    6.5229   56.4173 H       1  ZINC000623581528    0.1400
     43 H43        -1.5569    3.4358   53.5384 H       1  ZINC000623581528    0.1400
     44 H44        -0.7994    0.9403   49.0404 H       1  ZINC000623581528    0.1400
@<TRIPOS>BOND
     1     1     2    1
     2     1    28    1
     3     1    29    1
     4     1    30    1
     5     2    27    1
     6     2     3   am
     7     3     4    2
     8     3     5    1
     9     5     6    1
    10     6    27   ar
    11     6     7   ar
    12     7     8   ar
    13     7    31    1
    14     8     9   ar
    15     8    32    1
    16     9    10    1
    17     9    26   ar
    18    10    11    1
    19    10    33    1
    20    10    34    1
    21    11    12   am
    22    11    35    1
    23    12    13    2
    24    12    14   am
    25    14    15    1
    26    14    36    1
    27    15    16    1
    28    15    25    1
    29    15    17    1
    30    17    18    1
    31    17    37    1
    32    17    38    1
    33    18    19    1
    34    18    39    1
    35    18    40    1
    36    19    25   ar
    37    19    20   ar
    38    20    21   ar
    39    20    41    1
    40    21    22   ar
    41    21    42    1
    42    22    23    1
    43    22    24   ar
    44    24    25   ar
    45    24    43    1
    46    26    27   ar
    47    26    44    1
@<TRIPOS>SUBSTRUCTURE
     1 ZINC000623581528        1 TEMP              0 ****  ****    0 ROOT


##########                                Name:    ZINC000763800048
##########                DOCK_Rotatable_Bonds:                   8
##########                         Heavy_Atoms:                  23
##########                    Molecular_Weight:             329.783
##########                DOCK_Rotatable_Bonds:                   8
##########                       Formal_Charge:           0.0199994
##########                     HBond_Acceptors:                   5
##########                        HBond_Donors:                   1
##########                         Heavy_Atoms:                  23
##########                          Grid_Score:          -27.704540
##########                     Grid_vdw_energy:          -26.194540
##########                      Grid_es_energy:           -1.510001
##########           Internal_energy_repulsive:            5.890724

@<TRIPOS>MOLECULE
ZINC000763800048
 39 40 1 0 0
SMALL
USER_CHARGES


@<TRIPOS>ATOM
      1 C1         -8.1287    2.1296   55.8428 C.3     1  ZINC000763800048    0.0400
      2 O2         -7.0834    3.1024   56.1066 O.3     1  ZINC000763800048   -0.3600
      3 C3         -5.9278    2.6352   56.6047 C.2     1  ZINC000763800048    0.4600
      4 O4         -5.7403    1.4441   56.6805 O.2     1  ZINC000763800048   -0.4900
      5 C5         -4.8644    3.5966   57.0694 C.3     1  ZINC000763800048   -0.0700
      6 C6         -4.4041    4.4371   55.9062 C.ar    1  ZINC000763800048   -0.0600
      7 C7         -3.9731    5.7335   56.1190 C.ar    1  ZINC000763800048   -0.1200
      8 C8         -3.5498    6.5083   55.0543 C.ar    1  ZINC000763800048   -0.1000
      9 C9         -3.5559    5.9887   53.7749 C.ar    1  ZINC000763800048   -0.1100
     10 C10        -3.9879    4.6863   53.5578 C.ar    1  ZINC000763800048    0.1500
     11 N11        -3.9952    4.1572   52.2637 N.am    1  ZINC000763800048   -0.6700
     12 C12        -2.9190    3.4900   51.8023 C.2     1  ZINC000763800048    0.5500
     13 O13        -1.9406    3.3480   52.5122 O.2     1  ZINC000763800048   -0.5200
     14 C14        -2.9267    2.9361   50.4477 C.2     1  ZINC000763800048   -0.2100
     15 C15        -1.7841    2.4706   49.9030 C.2     1  ZINC000763800048   -0.0100
     16 C16        -1.7922    1.9121   48.5416 C.ar    1  ZINC000763800048   -0.0800
     17 C17        -0.9879    2.4761   47.5459 C.ar    1  ZINC000763800048   -0.0900
     18 C18        -1.0007    1.9478   46.2729 C.ar    1  ZINC000763800048   -0.1100
     19 C19        -1.8081    0.8611   45.9783 C.ar    1  ZINC000763800048   -0.0200
     20 Cl20       -1.8181    0.2028   44.3721 Cl      1  ZINC000763800048   -0.0600
     21 C21        -2.6071    0.2971   46.9596 C.ar    1  ZINC000763800048   -0.1100
     22 C22        -2.6001    0.8113   48.2385 C.ar    1  ZINC000763800048   -0.0800
     23 C23        -4.4077    3.9095   54.6297 C.ar    1  ZINC000763800048   -0.1300
     24 H24        -9.0062    2.6384   55.4439 H       1  ZINC000763800048    0.1000
     25 H25        -7.7708    1.3995   55.1169 H       1  ZINC000763800048    0.0600
     26 H26        -8.3937    1.6208   56.7695 H       1  ZINC000763800048    0.0600
     27 H27        -5.2734    4.2434   57.8455 H       1  ZINC000763800048    0.1200
     28 H28        -4.0192    3.0374   57.4704 H       1  ZINC000763800048    0.1200
     29 H29        -3.9674    6.1422   57.1185 H       1  ZINC000763800048    0.1200
     30 H30        -3.2144    7.5208   55.2236 H       1  ZINC000763800048    0.1300
     31 H31        -3.2255    6.5943   52.9439 H       1  ZINC000763800048    0.1400
     32 H32        -4.7750    4.2703   51.6979 H       1  ZINC000763800048    0.4100
     33 H33        -3.8473    2.9002   49.8843 H       1  ZINC000763800048    0.1300
     34 H34        -0.8632    2.5077   50.4660 H       1  ZINC000763800048    0.1400
     35 H35        -0.3585    3.3237   47.7740 H       1  ZINC000763800048    0.1400
     36 H36        -0.3800    2.3823   45.5032 H       1  ZINC000763800048    0.1400
     37 H37        -3.2340   -0.5499   46.7229 H       1  ZINC000763800048    0.1400
     38 H38        -3.2233    0.3704   49.0025 H       1  ZINC000763800048    0.1400
     39 H39        -4.7438    2.8965   54.4644 H       1  ZINC000763800048    0.1300
@<TRIPOS>BOND
     1     1     2    1
     2     1    24    1
     3     1    25    1
     4     1    26    1
     5     2     3    1
     6     3     4    2
     7     3     5    1
     8     5     6    1
     9     5    27    1
    10     5    28    1
    11     6    23   ar
    12     6     7   ar
    13     7     8   ar
    14     7    29    1
    15     8     9   ar
    16     8    30    1
    17     9    10   ar
    18     9    31    1
    19    10    11    1
    20    10    23   ar
    21    11    12   am
    22    11    32    1
    23    12    13    2
    24    12    14    1
    25    14    15    2
    26    14    33    1
    27    15    16    1
    28    15    34    1
    29    16    22   ar
    30    16    17   ar
    31    17    18   ar
    32    17    35    1
    33    18    19   ar
    34    18    36    1
    35    19    20    1
    36    19    21   ar
    37    21    22   ar
    38    21    37    1
    39    22    38    1
    40    23    39    1
@<TRIPOS>SUBSTRUCTURE
     1 ZINC000763800048        1 TEMP              0 ****  ****    0 ROOT


##########                                Name:    ZINC000286156371
##########                DOCK_Rotatable_Bonds:                   7
##########                         Heavy_Atoms:                  25
##########                    Molecular_Weight:             350.418
##########                DOCK_Rotatable_Bonds:                   7
##########                       Formal_Charge:          0.00999908
##########                     HBond_Acceptors:                   8
##########                        HBond_Donors:                   2
##########                         Heavy_Atoms:                  25
##########                          Grid_Score:          -27.681292
##########                     Grid_vdw_energy:          -25.919964
##########                      Grid_es_energy:           -1.761327
##########           Internal_energy_repulsive:           15.898463

@<TRIPOS>MOLECULE
ZINC000286156371
 51 53 1 0 0
SMALL
USER_CHARGES


@<TRIPOS>ATOM
      1 C1         -1.9576    2.9308   54.9817 C.3     1  <0>        -0.1800
      2 C2         -1.5346    4.2267   55.6767 C.3     1  <0>         0.1400
      3 C3         -2.0931    4.2473   57.1009 C.3     1  <0>        -0.1800
      4 C4         -0.0074    4.3035   55.7265 C.3     1  <0>        -0.1400
      5 O5         -2.0526    5.3638   54.9372 O.3     1  <0>        -0.3600
      6 C6         -2.1111    5.2463   53.5972 C.2     1  <0>         0.6800
      7 O7         -1.0860    5.1865   52.9474 O.2     1  <0>        -0.5600
      8 N8         -3.3063    5.1951   52.9766 N.am    1  <0>        -0.5800
      9 C9         -4.6218    5.2569   53.6393 C.3     1  <0>         0.0700
     10 C10        -5.5908    5.7793   52.5494 C.3     1  <0>         0.0900
     11 H11        -6.6144    5.4655   52.7538 H       1  <0>         0.0900
     12 O12        -5.5080    7.2008   52.4292 O.3     1  <0>        -0.5500
     13 C13        -5.0376    5.0798   51.2797 C.3     1  <0>        -0.1200
     14 C14        -3.5143    5.0749   51.5262 C.3     1  <0>         0.1500
     15 H15        -3.0525    5.9162   51.0095 H       1  <0>         0.1100
     16 C16        -2.9194    3.7813   51.0324 C.2     1  <0>         0.5200
     17 O17        -2.4652    2.9818   51.8233 O.2     1  <0>        -0.4900
     18 N18        -2.8920    3.5130   49.7119 N.am    1  <0>        -0.6300
     19 C19        -2.3403    2.3092   49.2527 C.2     1  <0>         0.3000
     20 N20        -2.9830    1.1727   49.1054 N.2     1  <0>        -0.3200
     21 N21        -2.0792    0.2219   48.6261 N.pl3   1  <0>        -0.3600
     22 C22        -2.3479   -1.1847   48.3116 C.3     1  <0>         0.1400
     23 C23        -1.2155   -1.7180   47.4278 C.3     1  <0>        -0.1400
     24 C24         0.1350   -1.3882   48.0703 C.3     1  <0>        -0.1300
     25 C25         0.3717    0.1260   47.9977 C.3     1  <0>        -0.0600
     26 C26        -0.8734    0.8214   48.4909 C.2     1  <0>         0.0900
     27 C27        -1.0042    2.1091   48.8638 C.2     1  <0>        -0.2600
     28 H28        -3.0456    2.8760   54.9462 H       1  <0>         0.0900
     29 H29        -1.5597    2.9162   53.9671 H       1  <0>         0.0600
     30 H30        -1.5687    2.0772   55.5368 H       1  <0>         0.0700
     31 H31        -1.7042    3.3936   57.6560 H       1  <0>         0.0700
     32 H32        -1.7917    5.1704   57.5961 H       1  <0>         0.0600
     33 H33        -3.1812    4.1924   57.0654 H       1  <0>         0.0900
     34 H34         0.3905    4.2889   54.7118 H       1  <0>         0.0700
     35 H35         0.2939    5.2267   56.2216 H       1  <0>         0.0700
     36 H36         0.3815    3.4499   56.2816 H       1  <0>         0.0800
     37 H37        -4.9255    4.2646   53.9728 H       1  <0>         0.0800
     38 H38        -4.5902    5.9480   54.4816 H       1  <0>         0.0900
     39 H39        -4.9801    7.5018   51.6769 H       1  <0>         0.3900
     40 H40        -5.4226    4.0631   51.2008 H       1  <0>         0.1000
     41 H41        -5.2796    5.6553   50.3861 H       1  <0>         0.1100
     42 H42        -3.2542    4.1529   49.0792 H       1  <0>         0.4200
     43 H43        -2.3946   -1.7629   49.2344 H       1  <0>         0.0800
     44 H44        -3.2957   -1.2652   47.7793 H       1  <0>         0.0900
     45 H45        -1.3140   -2.7986   47.3242 H       1  <0>         0.0900
     46 H46        -1.2727   -1.2525   46.4438 H       1  <0>         0.0800
     47 H47         0.1297   -1.7064   49.1129 H       1  <0>         0.0700
     48 H48         0.9298   -1.9070   47.5344 H       1  <0>         0.0800
     49 H49         1.2184    0.3967   48.6286 H       1  <0>         0.0900
     50 H50         0.5721    0.4180   46.9669 H       1  <0>         0.0900
     51 H51        -0.2221    2.8539   48.8658 H       1  <0>         0.1700
@<TRIPOS>BOND
     1     1     2    1
     2     1    28    1
     3     1    29    1
     4     1    30    1
     5     2     3    1
     6     2     4    1
     7     2     5    1
     8     3    31    1
     9     3    32    1
    10     3    33    1
    11     4    34    1
    12     4    35    1
    13     4    36    1
    14     5     6    1
    15     6     7    2
    16     6     8   am
    17     8    14    1
    18     8     9    1
    19     9    10    1
    20     9    37    1
    21     9    38    1
    22    10    11    1
    23    10    12    1
    24    10    13    1
    25    12    39    1
    26    13    14    1
    27    13    40    1
    28    13    41    1
    29    14    15    1
    30    14    16    1
    31    16    17    2
    32    16    18   am
    33    18    19    1
    34    18    42    1
    35    19    27    1
    36    19    20    2
    37    20    21    1
    38    21    26    1
    39    21    22    1
    40    22    23    1
    41    22    43    1
    42    22    44    1
    43    23    24    1
    44    23    45    1
    45    23    46    1
    46    24    25    1
    47    24    47    1
    48    24    48    1
    49    25    26    1
    50    25    49    1
    51    25    50    1
    52    26    27    2
    53    27    51    1
@<TRIPOS>SUBSTRUCTURE
     1 <0>         1 TEMP              0 ****  ****    0 ROOT


##########                                Name:    ZINC000648570180
##########                DOCK_Rotatable_Bonds:                   4
##########                         Heavy_Atoms:                  25
##########                    Molecular_Weight:             342.484
##########                DOCK_Rotatable_Bonds:                   4
##########                       Formal_Charge:          0.00999971
##########                     HBond_Acceptors:                   5
##########                        HBond_Donors:                   0
##########                         Heavy_Atoms:                  25
##########                          Grid_Score:          -27.656475
##########                     Grid_vdw_energy:          -26.583210
##########                      Grid_es_energy:           -1.073264
##########           Internal_energy_repulsive:           79.717957

@<TRIPOS>MOLECULE
ZINC000648570180
 55 58 1 0 0
SMALL
USER_CHARGES


@<TRIPOS>ATOM
      1 C1         -8.4803    1.6031   61.4194 C.3     1  ZINC000648570180   -0.1500
      2 C2         -8.9498    1.3757   62.8578 C.3     1  ZINC000648570180   -0.0600
      3 C3         -7.8288    0.7363   63.6797 C.3     1  ZINC000648570180   -0.1400
      4 C4         -9.3742    2.7158   63.4933 C.3     1  ZINC000648570180   -0.1200
      5 C5        -10.5962    2.3493   64.3717 C.3     1  ZINC000648570180   -0.1300
      6 C6        -11.3310    1.2916   63.5112 C.3     1  ZINC000648570180   -0.1200
      7 C7        -10.1939    0.4702   62.8692 C.3     1  ZINC000648570180   -0.0700
      8 H8         -9.9993   -0.4243   63.4610 H       1  ZINC000648570180    0.0800
      9 C9        -10.5724    0.0798   61.4391 C.3     1  ZINC000648570180   -0.1000
     10 H10       -10.4621    0.9274   60.7627 H       1  ZINC000648570180    0.1000
     11 C11        -9.7344   -1.1322   60.9531 C.3     1  ZINC000648570180   -0.1400
     12 C12       -10.6501   -1.7839   59.8956 C.3     1  ZINC000648570180    0.1200
     13 N13       -12.0261   -1.3549   60.1858 N.am    1  ZINC000648570180   -0.6000
     14 C14       -13.1207   -1.6941   59.4765 C.2     1  ZINC000648570180    0.5800
     15 O15       -14.2127   -1.2785   59.8088 O.2     1  ZINC000648570180   -0.5200
     16 C16       -12.9919   -2.5756   58.2887 C.ar    1  ZINC000648570180    0.1600
     17 C17       -13.3379   -3.9243   58.3673 C.ar    1  ZINC000648570180   -0.2000
     18 C18       -13.2009   -4.7089   57.2303 C.ar    1  ZINC000648570180    0.1800
     19 N19       -12.7505   -4.1587   56.1170 N.ar    1  ZINC000648570180   -0.5400
     20 C20       -12.4295   -2.8731   56.0728 C.ar    1  ZINC000648570180    0.4800
     21 N21       -11.9611   -2.3355   54.8863 N.3     1  ZINC000648570180   -0.4400
     22 C22       -12.7392   -1.1293   54.5045 C.3     1  ZINC000648570180    0.0500
     23 C23       -11.7937   -0.3939   53.5216 C.3     1  ZINC000648570180   -0.1200
     24 C24       -10.3973   -0.6348   54.1399 C.3     1  ZINC000648570180   -0.1300
     25 C25       -10.5596   -1.8839   55.0256 C.3     1  ZINC000648570180    0.0400
     26 N26       -12.5498   -2.0894   57.1316 N.ar    1  ZINC000648570180   -0.5000
     27 C27       -12.0107   -0.4925   61.3819 C.3     1  ZINC000648570180    0.1100
     28 H28        -9.3166    1.9553   60.8156 H       1  ZINC000648570180    0.0600
     29 H29        -7.6860    2.3494   61.4103 H       1  ZINC000648570180    0.0500
     30 H30        -8.1039    0.6667   61.0078 H       1  ZINC000648570180    0.0700
     31 H31        -6.9569    1.3905   63.6756 H       1  ZINC000648570180    0.0500
     32 H32        -8.1683    0.5899   64.7050 H       1  ZINC000648570180    0.0500
     33 H33        -7.5626   -0.2266   63.2440 H       1  ZINC000648570180    0.0500
     34 H34        -8.5692    3.1181   64.1082 H       1  ZINC000648570180    0.0600
     35 H35        -9.6598    3.4304   62.7214 H       1  ZINC000648570180    0.0700
     36 H36       -10.2749    1.9199   65.3207 H       1  ZINC000648570180    0.0700
     37 H37       -11.2293    3.2214   64.5357 H       1  ZINC000648570180    0.0700
     38 H38       -11.9539    0.6548   64.1393 H       1  ZINC000648570180    0.0700
     39 H39       -11.9325    1.7764   62.7424 H       1  ZINC000648570180    0.0700
     40 H40        -8.8001   -0.7988   60.5014 H       1  ZINC000648570180    0.0900
     41 H41        -9.5421   -1.8223   61.7747 H       1  ZINC000648570180    0.0800
     42 H42       -10.3606   -1.4511   58.8989 H       1  ZINC000648570180    0.0800
     43 H43       -10.5785   -2.8695   59.9616 H       1  ZINC000648570180    0.0700
     44 H44       -13.7035   -4.3484   59.2908 H       1  ZINC000648570180    0.1600
     45 H45       -13.4593   -5.7572   57.2558 H       1  ZINC000648570180    0.1800
     46 H46       -13.6671   -1.4115   54.0071 H       1  ZINC000648570180    0.1000
     47 H47       -12.9428   -0.5104   55.3783 H       1  ZINC000648570180    0.0500
     48 H48       -11.8556   -0.8326   52.5258 H       1  ZINC000648570180    0.0800
     49 H49       -12.0230    0.6712   53.4900 H       1  ZINC000648570180    0.0800
     50 H50        -9.6632   -0.8199   53.3557 H       1  ZINC000648570180    0.0800
     51 H51       -10.0985    0.2215   54.7445 H       1  ZINC000648570180    0.0700
     52 H52       -10.3527   -1.6312   56.0655 H       1  ZINC000648570180    0.0900
     53 H53        -9.8816   -2.6683   54.6893 H       1  ZINC000648570180    0.0900
     54 H54       -12.2203   -1.0799   62.2758 H       1  ZINC000648570180    0.0700
     55 H55       -12.7370    0.3135   61.2778 H       1  ZINC000648570180    0.0800
@<TRIPOS>BOND
     1     1     2    1
     2     1    28    1
     3     1    29    1
     4     1    30    1
     5     2     7    1
     6     2     3    1
     7     2     4    1
     8     3    31    1
     9     3    32    1
    10     3    33    1
    11     4     5    1
    12     4    34    1
    13     4    35    1
    14     5     6    1
    15     5    36    1
    16     5    37    1
    17     6     7    1
    18     6    38    1
    19     6    39    1
    20     7     8    1
    21     7     9    1
    22     9    10    1
    23     9    27    1
    24     9    11    1
    25    11    12    1
    26    11    40    1
    27    11    41    1
    28    12    13    1
    29    12    42    1
    30    12    43    1
    31    13    14   am
    32    13    27    1
    33    14    15    2
    34    14    16    1
    35    16    26   ar
    36    16    17   ar
    37    17    18   ar
    38    17    44    1
    39    18    19   ar
    40    18    45    1
    41    19    20   ar
    42    20    21    1
    43    20    26   ar
    44    21    25    1
    45    21    22    1
    46    22    23    1
    47    22    46    1
    48    22    47    1
    49    23    24    1
    50    23    48    1
    51    23    49    1
    52    24    25    1
    53    24    50    1
    54    24    51    1
    55    25    52    1
    56    25    53    1
    57    27    54    1
    58    27    55    1
@<TRIPOS>SUBSTRUCTURE
     1 ZINC000648570180        1 TEMP              0 ****  ****    0 ROOT


##########                                Name:    ZINC000517001504
##########                DOCK_Rotatable_Bonds:                   5
##########                         Heavy_Atoms:                  29
##########                    Molecular_Weight:             403.401
##########                DOCK_Rotatable_Bonds:                   5
##########                       Formal_Charge:          -0.0200002
##########                     HBond_Acceptors:                   7
##########                        HBond_Donors:                   0
##########                         Heavy_Atoms:                  29
##########                          Grid_Score:          -27.654812
##########                     Grid_vdw_energy:          -26.726194
##########                      Grid_es_energy:           -0.928618
##########           Internal_energy_repulsive:           36.775227

@<TRIPOS>MOLECULE
ZINC000517001504
 49 52 1 0 0
SMALL
USER_CHARGES


@<TRIPOS>ATOM
      1 O1        -14.1686   -2.5347   60.7429 O.2     1  ZINC000517001504   -0.5200
      2 C2        -13.6295   -1.8143   59.9297 C.2     1  ZINC000517001504    0.5400
      3 N3        -13.5619   -2.1896   58.6370 N.am    1  ZINC000517001504   -0.6100
      4 C4        -14.1296   -3.4715   58.1897 C.3     1  ZINC000517001504    0.0600
      5 C5        -13.0645   -4.2137   57.3746 C.3     1  ZINC000517001504    0.0500
      6 O6        -12.5669   -3.3482   56.3513 O.3     1  ZINC000517001504   -0.3700
      7 C7        -11.9126   -2.1762   56.8432 C.3     1  ZINC000517001504    0.1200
      8 H8        -11.0898   -2.4658   57.4968 H       1  ZINC000517001504    0.0800
      9 C9        -11.3772   -1.3749   55.6846 C.ar    1  ZINC000517001504   -0.0600
     10 C10       -11.6327   -1.7794   54.3877 C.ar    1  ZINC000517001504   -0.0900
     11 C11       -11.1415   -1.0444   53.3250 C.ar    1  ZINC000517001504   -0.0700
     12 C12       -10.3952    0.0953   53.5592 C.ar    1  ZINC000517001504   -0.1800
     13 C13        -9.8593    0.8964   52.4006 C.3     1  ZINC000517001504    0.5100
     14 F14        -9.3910    0.0269   51.4096 F       1  ZINC000517001504   -0.1800
     15 F15       -10.8795    1.6963   51.8751 F       1  ZINC000517001504   -0.1800
     16 F16        -8.8096    1.7093   52.8416 F       1  ZINC000517001504   -0.1800
     17 C17       -10.1407    0.5006   54.8560 C.ar    1  ZINC000517001504   -0.0700
     18 C18       -10.6352   -0.2323   55.9187 C.ar    1  ZINC000517001504   -0.1000
     19 C19       -12.9237   -1.3269   57.6302 C.3     1  ZINC000517001504    0.0900
     20 C20       -13.0408   -0.4967   60.3635 C.3     1  ZINC000517001504   -0.0600
     21 C21       -11.5343   -0.4867   60.3245 C.ar    1  ZINC000517001504   -0.0700
     22 C22       -10.8702    0.3980   59.4957 C.ar    1  ZINC000517001504   -0.1200
     23 C23        -9.4883    0.4072   59.4600 C.ar    1  ZINC000517001504   -0.1100
     24 C24        -8.7706   -0.4681   60.2535 C.ar    1  ZINC000517001504   -0.1100
     25 C25        -9.4348   -1.3523   61.0829 C.ar    1  ZINC000517001504   -0.1100
     26 C26       -10.8165   -1.3585   61.1218 C.ar    1  ZINC000517001504   -0.1000
     27 C27       -13.6860    0.7221   59.6818 C.3     1  ZINC000517001504   -0.1600
     28 C28       -14.6722    0.7358   60.8329 C.2     1  ZINC000517001504    0.3600
     29 O29       -15.8007    1.1310   61.0010 O.2     1  ZINC000517001504   -0.4100
     30 C30       -13.6277    0.0378   61.6813 C.3     1  ZINC000517001504   -0.1900
     31 H31       -14.4123   -4.0699   59.0558 H       1  ZINC000517001504    0.1000
     32 H32       -15.0059   -3.2878   57.5680 H       1  ZINC000517001504    0.0800
     33 H33       -12.2459   -4.5107   58.0301 H       1  ZINC000517001504    0.0600
     34 H34       -13.5067   -5.0997   56.9189 H       1  ZINC000517001504    0.1100
     35 H35       -12.2158   -2.6698   54.2048 H       1  ZINC000517001504    0.1400
     36 H36       -11.3406   -1.3609   52.3117 H       1  ZINC000517001504    0.1400
     37 H37        -9.5580    1.3913   55.0389 H       1  ZINC000517001504    0.1400
     38 H38       -10.4364    0.0844   56.9320 H       1  ZINC000517001504    0.1400
     39 H39       -13.6764   -0.9284   56.9500 H       1  ZINC000517001504    0.0800
     40 H40       -12.4060   -0.5065   58.1270 H       1  ZINC000517001504    0.1100
     41 H41       -11.4309    1.0819   58.8757 H       1  ZINC000517001504    0.1300
     42 H42        -8.9694    1.0979   58.8119 H       1  ZINC000517001504    0.1300
     43 H43        -7.6910   -0.4615   60.2251 H       1  ZINC000517001504    0.1300
     44 H44        -8.8741   -2.0364   61.7027 H       1  ZINC000517001504    0.1300
     45 H45       -11.3354   -2.0492   61.7700 H       1  ZINC000517001504    0.1200
     46 H46       -13.0391    1.5989   59.6494 H       1  ZINC000517001504    0.1300
     47 H47       -14.1415    0.4943   58.7181 H       1  ZINC000517001504    0.1100
     48 H48       -14.0364   -0.7406   62.3258 H       1  ZINC000517001504    0.1000
     49 H49       -12.9645    0.7225   62.2099 H       1  ZINC000517001504    0.1400
@<TRIPOS>BOND
     1     1     2    2
     2     2     3   am
     3     2    20    1
     4     3    19    1
     5     3     4    1
     6     4     5    1
     7     4    31    1
     8     4    32    1
     9     5     6    1
    10     5    33    1
    11     5    34    1
    12     6     7    1
    13     7     8    1
    14     7     9    1
    15     7    19    1
    16     9    18   ar
    17     9    10   ar
    18    10    11   ar
    19    10    35    1
    20    11    12   ar
    21    11    36    1
    22    12    13    1
    23    12    17   ar
    24    13    14    1
    25    13    15    1
    26    13    16    1
    27    17    18   ar
    28    17    37    1
    29    18    38    1
    30    19    39    1
    31    19    40    1
    32    20    30    1
    33    20    21    1
    34    20    27    1
    35    21    26   ar
    36    21    22   ar
    37    22    23   ar
    38    22    41    1
    39    23    24   ar
    40    23    42    1
    41    24    25   ar
    42    24    43    1
    43    25    26   ar
    44    25    44    1
    45    26    45    1
    46    27    28    1
    47    27    46    1
    48    27    47    1
    49    28    29    2
    50    28    30    1
    51    30    48    1
    52    30    49    1
@<TRIPOS>SUBSTRUCTURE
     1 ZINC000517001504        1 TEMP              0 ****  ****    0 ROOT


##########                                Name:    ZINC000443933644
##########                DOCK_Rotatable_Bonds:                   8
##########                         Heavy_Atoms:                  27
##########                    Molecular_Weight:             402.438
##########                DOCK_Rotatable_Bonds:                   8
##########                       Formal_Charge:          0.00999922
##########                     HBond_Acceptors:                   9
##########                        HBond_Donors:                   2
##########                         Heavy_Atoms:                  27
##########                          Grid_Score:          -27.650703
##########                     Grid_vdw_energy:          -26.947412
##########                      Grid_es_energy:           -0.703290
##########           Internal_energy_repulsive:           38.293373

@<TRIPOS>MOLECULE
ZINC000443933644
 48 49 1 0 0
SMALL
USER_CHARGES


@<TRIPOS>ATOM
      1 C1         -8.7296    2.9034   63.1065 C.3     1  ZINC000443933644   -0.1500
      2 C2         -9.3132    1.5842   62.5964 C.3     1  ZINC000443933644   -0.1400
      3 C3         -8.7737    1.2964   61.1939 C.3     1  ZINC000443933644   -0.1000
      4 H4         -7.6864    1.2288   61.2296 H       1  ZINC000443933644    0.1000
      5 C5         -9.1836    2.4269   60.2479 C.3     1  ZINC000443933644   -0.1700
      6 C6         -9.3505   -0.0270   60.6873 C.3     1  ZINC000443933644    0.1200
      7 H7         -9.0579   -0.1768   59.6480 H       1  ZINC000443933644    0.1300
      8 N8        -10.8120    0.0089   60.7826 N.am    1  ZINC000443933644   -1.1100
      9 S9        -11.7205   -1.1443   60.0165 S.o2    1  ZINC000443933644    2.6900
     10 O10       -11.2209   -2.4021   60.4500 O.2     1  ZINC000443933644   -0.9400
     11 O11       -13.0778   -0.7527   60.1691 O.2     1  ZINC000443933644   -0.9400
     12 C12       -11.3610   -1.0329   58.2951 C.ar    1  ZINC000443933644   -0.7000
     13 C13       -11.7690   -2.0570   57.4240 C.ar    1  ZINC000443933644    0.0500
     14 C14       -12.4661   -3.1819   57.8983 C.ar    1  ZINC000443933644   -0.1400
     15 C15       -12.8467   -4.1553   57.0267 C.ar    1  ZINC000443933644   -0.0800
     16 C16       -12.5559   -4.0548   55.6676 C.ar    1  ZINC000443933644   -0.1200
     17 C17       -11.8822   -2.9799   55.1730 C.ar    1  ZINC000443933644   -0.0900
     18 C18       -11.4739   -1.9558   56.0420 C.ar    1  ZINC000443933644   -0.0900
     19 C19       -10.7740   -0.8270   55.5657 C.ar    1  ZINC000443933644    0.2300
     20 N20       -10.4721   -0.7067   54.2079 N.am    1  ZINC000443933644   -0.6700
     21 C21       -11.2855   -0.0022   53.3965 C.2     1  ZINC000443933644    0.5100
     22 C22       -10.9596    0.1277   51.9309 C.3     1  ZINC000443933644   -0.1700
     23 O23       -12.2798    0.5274   53.8459 O.2     1  ZINC000443933644   -0.5100
     24 C24       -10.3913    0.1558   56.4528 C.ar    1  ZINC000443933644   -0.1600
     25 C25       -10.6925    0.0484   57.8072 C.ar    1  ZINC000443933644    0.0400
     26 C26        -8.8120   -1.1777   61.5398 C.3     1  ZINC000443933644    0.4300
     27 F27        -7.6268   -0.7786   62.1668 F       1  ZINC000443933644   -0.1700
     28 F28        -9.7595   -1.5227   62.5096 F       1  ZINC000443933644   -0.1600
     29 F29        -8.5573   -2.2841   60.7223 F       1  ZINC000443933644   -0.1700
     30 H30        -7.6428    2.8298   63.1433 H       1  ZINC000443933644    0.0500
     31 H31        -9.0165    3.7117   62.4338 H       1  ZINC000443933644    0.0600
     32 H32        -9.1140    3.1085   64.1057 H       1  ZINC000443933644    0.0600
     33 H33        -9.0263    0.7759   63.2690 H       1  ZINC000443933644    0.0700
     34 H34       -10.4000    1.6578   62.5596 H       1  ZINC000443933644    0.0900
     35 H35        -8.6786    3.3472   60.5412 H       1  ZINC000443933644    0.0700
     36 H36        -8.9017    2.1670   59.2275 H       1  ZINC000443933644    0.0600
     37 H37       -10.2626    2.5718   60.3010 H       1  ZINC000443933644    0.0700
     38 H38       -11.2476    0.7083   61.2946 H       1  ZINC000443933644    0.4300
     39 H39       -12.6979   -3.2734   58.9492 H       1  ZINC000443933644    0.1400
     40 H40       -13.3818   -5.0187   57.3938 H       1  ZINC000443933644    0.1300
     41 H41       -12.8691   -4.8411   54.9968 H       1  ZINC000443933644    0.1300
     42 H42       -11.6630   -2.9156   54.1175 H       1  ZINC000443933644    0.1300
     43 H43        -9.6769   -1.1304   53.8486 H       1  ZINC000443933644    0.4200
     44 H44       -10.0366   -0.4103   51.7150 H       1  ZINC000443933644    0.0800
     45 H45       -11.7725   -0.2934   51.3393 H       1  ZINC000443933644    0.1000
     46 H46       -10.8341    1.1806   51.6786 H       1  ZINC000443933644    0.1000
     47 H47        -9.8554    1.0213   56.0921 H       1  ZINC000443933644    0.1500
     48 H48       -10.3826    0.8310   58.4839 H       1  ZINC000443933644    0.1500
@<TRIPOS>BOND
     1     1     2    1
     2     1    30    1
     3     1    31    1
     4     1    32    1
     5     2     3    1
     6     2    33    1
     7     2    34    1
     8     3     4    1
     9     3     5    1
    10     3     6    1
    11     5    35    1
    12     5    36    1
    13     5    37    1
    14     6     7    1
    15     6     8    1
    16     6    26    1
    17     8     9   am
    18     8    38    1
    19     9    10    2
    20     9    11    2
    21     9    12    1
    22    12    25   ar
    23    12    13   ar
    24    13    18   ar
    25    13    14   ar
    26    14    15   ar
    27    14    39    1
    28    15    16   ar
    29    15    40    1
    30    16    17   ar
    31    16    41    1
    32    17    18   ar
    33    17    42    1
    34    18    19   ar
    35    19    20    1
    36    19    24   ar
    37    20    21   am
    38    20    43    1
    39    21    22    1
    40    21    23    2
    41    22    44    1
    42    22    45    1
    43    22    46    1
    44    24    25   ar
    45    24    47    1
    46    25    48    1
    47    26    27    1
    48    26    28    1
    49    26    29    1
@<TRIPOS>SUBSTRUCTURE
     1 ZINC000443933644        1 TEMP              0 ****  ****    0 ROOT


##########                                Name:    ZINC000477589488
##########                DOCK_Rotatable_Bonds:                   6
##########                         Heavy_Atoms:                  32
##########                    Molecular_Weight:             423.517
##########                DOCK_Rotatable_Bonds:                   6
##########                       Formal_Charge:        -8.19564e-07
##########                     HBond_Acceptors:                   6
##########                        HBond_Donors:                   1
##########                         Heavy_Atoms:                  32
##########                          Grid_Score:          -27.650278
##########                     Grid_vdw_energy:          -26.226768
##########                      Grid_es_energy:           -1.423510
##########           Internal_energy_repulsive:           20.059792

@<TRIPOS>MOLECULE
ZINC000477589488
 57 61 1 0 0
SMALL
USER_CHARGES


@<TRIPOS>ATOM
      1 O1         -8.1700    0.4365   59.4675 O.2     1  ZINC000477589488   -0.5800
      2 C2         -8.8566    0.2779   58.4766 C.2     1  ZINC000477589488    0.7100
      3 N3         -8.6221    1.0103   57.3699 N.am    1  ZINC000477589488   -0.7400
      4 C4         -7.5437    2.0020   57.3627 C.3     1  ZINC000477589488    0.2500
      5 H5         -6.6583    1.5793   57.8377 H       1  ZINC000477589488    0.1100
      6 C6         -7.9835    3.2280   58.1207 C.ar    1  ZINC000477589488   -0.0900
      7 C7         -7.5438    3.4351   59.4148 C.ar    1  ZINC000477589488   -0.1000
      8 C8         -7.9472    4.5597   60.1101 C.ar    1  ZINC000477589488   -0.1200
      9 C9         -8.7898    5.4775   59.5111 C.ar    1  ZINC000477589488   -0.1200
     10 C10        -9.2287    5.2707   58.2167 C.ar    1  ZINC000477589488   -0.1200
     11 C11        -8.8219    4.1482   57.5198 C.ar    1  ZINC000477589488   -0.1000
     12 C12        -7.2185    2.3803   55.9407 C.ar    1  ZINC000477589488   -0.0700
     13 C13        -6.0199    3.0511   55.6448 C.ar    1  ZINC000477589488   -0.0400
     14 C14        -5.1011    3.3837   56.6549 C.ar    1  ZINC000477589488   -0.1100
     15 C15        -3.9501    4.0333   56.3308 C.ar    1  ZINC000477589488   -0.1100
     16 C16        -3.6668    4.3758   55.0097 C.ar    1  ZINC000477589488   -0.1100
     17 C17        -4.5329    4.0703   54.0055 C.ar    1  ZINC000477589488   -0.1100
     18 C18        -5.7316    3.3988   54.3012 C.ar    1  ZINC000477589488   -0.0500
     19 C19        -6.6501    3.0662   53.2913 C.ar    1  ZINC000477589488   -0.1000
     20 C20        -7.8009    2.4152   53.6153 C.ar    1  ZINC000477589488   -0.1100
     21 C21        -8.0820    2.0689   54.9354 C.ar    1  ZINC000477589488   -0.1100
     22 N22        -9.8487   -0.6344   58.4833 N.am    1  ZINC000477589488   -0.6300
     23 C23       -10.1255   -1.4400   59.6822 C.3     1  ZINC000477589488    0.1300
     24 C24       -11.6201   -1.3363   60.0040 C.3     1  ZINC000477589488    0.0500
     25 N25       -12.4004   -1.7039   58.8150 N.3     1  ZINC000477589488   -0.4700
     26 C26       -13.7565   -1.7796   59.1127 C.ar    1  ZINC000477589488    0.2500
     27 C27       -14.6233   -2.4645   58.2620 C.ar    1  ZINC000477589488   -0.1300
     28 C28       -15.9658   -2.5107   58.6036 C.ar    1  ZINC000477589488   -0.0900
     29 C29       -16.3645   -1.8733   59.7700 C.ar    1  ZINC000477589488    0.0200
     30 N30       -15.4759   -1.2479   60.5165 N.ar    1  ZINC000477589488   -0.2200
     31 N31       -14.2304   -1.2058   60.2092 N.ar    1  ZINC000477589488   -0.2800
     32 C32       -12.1559   -0.7702   57.7075 C.3     1  ZINC000477589488    0.0400
     33 C33       -10.6871   -0.8464   57.2936 C.3     1  ZINC000477589488    0.1200
     34 H34        -9.1671    0.8810   56.5781 H       1  ZINC000477589488    0.3900
     35 H35        -6.8855    2.7182   59.8828 H       1  ZINC000477589488    0.1100
     36 H36        -7.6043    4.7212   61.1214 H       1  ZINC000477589488    0.1200
     37 H37        -9.1056    6.3556   60.0546 H       1  ZINC000477589488    0.1200
     38 H38        -9.8873    5.9875   57.7489 H       1  ZINC000477589488    0.1200
     39 H39        -9.1648    3.9867   56.5085 H       1  ZINC000477589488    0.1200
     40 H40        -5.3075    3.1254   57.6830 H       1  ZINC000477589488    0.1300
     41 H41        -3.2457    4.2877   57.1089 H       1  ZINC000477589488    0.1300
     42 H42        -2.7462    4.8915   54.7796 H       1  ZINC000477589488    0.1300
     43 H43        -4.3003    4.3426   52.9865 H       1  ZINC000477589488    0.1300
     44 H44        -6.4443    3.3260   52.2634 H       1  ZINC000477589488    0.1300
     45 H45        -8.5053    2.1611   52.8372 H       1  ZINC000477589488    0.1300
     46 H46        -9.0021    1.5524   55.1654 H       1  ZINC000477589488    0.1200
     47 H47        -9.8631   -2.4808   59.4925 H       1  ZINC000477589488    0.0800
     48 H48        -9.5429   -1.0597   60.5214 H       1  ZINC000477589488    0.1100
     49 H49       -11.8638   -2.0135   60.8226 H       1  ZINC000477589488    0.1000
     50 H50       -11.8594   -0.3132   60.2942 H       1  ZINC000477589488    0.0600
     51 H51       -14.2601   -2.9436   57.3648 H       1  ZINC000477589488    0.1500
     52 H52       -16.6806   -3.0273   57.9802 H       1  ZINC000477589488    0.1500
     53 H53       -17.4029   -1.8891   60.0661 H       1  ZINC000477589488    0.1700
     54 H54       -12.7881   -1.0369   56.8606 H       1  ZINC000477589488    0.1000
     55 H55       -12.3878    0.2450   58.0297 H       1  ZINC000477589488    0.0600
     56 H56       -10.4752   -0.0760   56.5523 H       1  ZINC000477589488    0.0800
     57 H57       -10.4755   -1.8300   56.8744 H       1  ZINC000477589488    0.0900
@<TRIPOS>BOND
     1     1     2    2
     2     2     3   am
     3     2    22   am
     4     3     4    1
     5     3    34    1
     6     4     5    1
     7     4     6    1
     8     4    12    1
     9     6    11   ar
    10     6     7   ar
    11     7     8   ar
    12     7    35    1
    13     8     9   ar
    14     8    36    1
    15     9    10   ar
    16     9    37    1
    17    10    11   ar
    18    10    38    1
    19    11    39    1
    20    12    21   ar
    21    12    13   ar
    22    13    18   ar
    23    13    14   ar
    24    14    15   ar
    25    14    40    1
    26    15    16   ar
    27    15    41    1
    28    16    17   ar
    29    16    42    1
    30    17    18   ar
    31    17    43    1
    32    18    19   ar
    33    19    20   ar
    34    19    44    1
    35    20    21   ar
    36    20    45    1
    37    21    46    1
    38    22    33    1
    39    22    23    1
    40    23    24    1
    41    23    47    1
    42    23    48    1
    43    24    25    1
    44    24    49    1
    45    24    50    1
    46    25    26    1
    47    25    32    1
    48    26    31   ar
    49    26    27   ar
    50    27    28   ar
    51    27    51    1
    52    28    29   ar
    53    28    52    1
    54    29    30   ar
    55    29    53    1
    56    30    31   ar
    57    32    33    1
    58    32    54    1
    59    32    55    1
    60    33    56    1
    61    33    57    1
@<TRIPOS>SUBSTRUCTURE
     1 ZINC000477589488        1 TEMP              0 ****  ****    0 ROOT


##########                                Name:    ZINC000130059363
##########                DOCK_Rotatable_Bonds:                   4
##########                         Heavy_Atoms:                  29
##########                    Molecular_Weight:             389.497
##########                DOCK_Rotatable_Bonds:                   4
##########                       Formal_Charge:          -0.0100003
##########                     HBond_Acceptors:                   5
##########                        HBond_Donors:                   0
##########                         Heavy_Atoms:                  29
##########                          Grid_Score:          -27.631077
##########                     Grid_vdw_energy:          -27.550760
##########                      Grid_es_energy:           -0.080317
##########           Internal_energy_repulsive:           28.742773

@<TRIPOS>MOLECULE
ZINC000130059363
 56 60 1 0 0
SMALL
USER_CHARGES


@<TRIPOS>ATOM
      1 C1         -2.4970    5.2289   49.9393 C.3     1  ZINC000130059363   -0.1200
      2 C2         -1.7717    4.6341   51.1188 C.ar    1  ZINC000130059363    0.1900
      3 N3         -2.4329    4.3728   52.2249 N.ar    1  ZINC000130059363   -0.4800
      4 C4         -1.8361    3.8485   53.2891 C.ar    1  ZINC000130059363    0.2000
      5 C5         -2.6288    3.5732   54.5109 C.ar    1  ZINC000130059363   -0.0600
      6 C6         -1.9863    3.2231   55.6978 C.ar    1  ZINC000130059363   -0.1000
      7 C7         -2.7295    2.9683   56.8322 C.ar    1  ZINC000130059363   -0.1200
      8 C8         -4.1094    3.0593   56.7933 C.ar    1  ZINC000130059363   -0.1000
      9 C9         -4.7524    3.4057   55.6184 C.ar    1  ZINC000130059363   -0.1300
     10 C10        -4.0194    3.6688   54.4793 C.ar    1  ZINC000130059363   -0.0700
     11 C11        -0.4731    3.5532   53.2718 C.ar    1  ZINC000130059363   -0.1800
     12 C12         0.2583    3.8122   52.1296 C.ar    1  ZINC000130059363   -0.0400
     13 C13        -0.4053    4.3609   51.0237 C.ar    1  ZINC000130059363   -0.1900
     14 C14         0.3323    4.6558   49.7784 C.2     1  ZINC000130059363    0.5700
     15 O15         1.0356    5.6449   49.7082 O.2     1  ZINC000130059363   -0.5200
     16 N16         0.2258    3.8282   48.7200 N.am    1  ZINC000130059363   -0.6000
     17 C17         0.9573    4.1025   47.4749 C.3     1  ZINC000130059363    0.1000
     18 C18         1.7942    2.8688   47.1234 C.3     1  ZINC000130059363   -0.1500
     19 C19         0.8998    1.6355   47.0684 C.3     1  ZINC000130059363    0.1500
     20 H20         1.5274    0.7704   46.8538 H       1  ZINC000130059363    0.0700
     21 C21         0.2111    1.4016   48.4115 C.3     1  ZINC000130059363   -0.1100
     22 H22         0.9538    1.1925   49.1814 H       1  ZINC000130059363    0.1000
     23 C23        -0.7393    0.2037   48.2557 C.3     1  ZINC000130059363   -0.1200
     24 C24        -1.8779    0.6155   47.3191 C.3     1  ZINC000130059363   -0.1400
     25 C25        -1.3242    1.2675   46.0852 C.2     1  ZINC000130059363    0.5200
     26 O26        -2.0460    1.3675   45.1156 O.2     1  ZINC000130059363   -0.5400
     27 N27        -0.0899    1.7508   46.0089 N.am    1  ZINC000130059363   -0.5700
     28 C28         0.3168    2.4188   44.7701 C.3     1  ZINC000130059363    0.0700
     29 C29         1.6266    1.9671   44.1211 C.3     1  ZINC000130059363   -0.1800
     30 C30         0.2876    1.5952   43.4810 C.3     1  ZINC000130059363   -0.1600
     31 C31        -0.6187    2.6292   48.7868 C.3     1  ZINC000130059363    0.1100
     32 H32        -2.7958    4.4327   49.2575 H       1  ZINC000130059363    0.0800
     33 H33        -3.3826    5.7603   50.2878 H       1  ZINC000130059363    0.0800
     34 H34        -1.8372    5.9238   49.4198 H       1  ZINC000130059363    0.1000
     35 H35        -0.9091    3.1511   55.7292 H       1  ZINC000130059363    0.1300
     36 H36        -2.2331    2.6971   57.7521 H       1  ZINC000130059363    0.1300
     37 H37        -4.6871    2.8586   57.6835 H       1  ZINC000130059363    0.1300
     38 H38        -5.8299    3.4749   55.5939 H       1  ZINC000130059363    0.1300
     39 H39        -4.5224    3.9393   53.5625 H       1  ZINC000130059363    0.1400
     40 H40         0.0047    3.1272   54.1416 H       1  ZINC000130059363    0.1400
     41 H41         1.3152    3.5939   52.0880 H       1  ZINC000130059363    0.1400
     42 H42         0.2499    4.3072   46.6712 H       1  ZINC000130059363    0.0700
     43 H43         1.6123    4.9623   47.6158 H       1  ZINC000130059363    0.0900
     44 H44         2.2674    3.0167   46.1527 H       1  ZINC000130059363    0.0900
     45 H45         2.5635    2.7249   47.8820 H       1  ZINC000130059363    0.0800
     46 H46        -0.1992   -0.6411   47.8285 H       1  ZINC000130059363    0.0800
     47 H47        -1.1453   -0.0726   49.2288 H       1  ZINC000130059363    0.0900
     48 H48        -2.4493   -0.2683   47.0351 H       1  ZINC000130059363    0.1000
     49 H49        -2.5340    1.3166   47.8347 H       1  ZINC000130059363    0.1000
     50 H50         0.0573    3.4750   44.6985 H       1  ZINC000130059363    0.1100
     51 H51         2.2291    2.7263   43.6224 H       1  ZINC000130059363    0.1100
     52 H52         2.1858    1.1730   44.6159 H       1  ZINC000130059363    0.1000
     53 H53        -0.0342    0.5565   43.5547 H       1  ZINC000130059363    0.1000
     54 H54         0.0093    2.1097   42.5613 H       1  ZINC000130059363    0.1000
     55 H55        -1.0066    2.5112   49.7986 H       1  ZINC000130059363    0.1000
     56 H56        -1.4482    2.7357   48.0877 H       1  ZINC000130059363    0.0700
@<TRIPOS>BOND
     1     1     2    1
     2     1    32    1
     3     1    33    1
     4     1    34    1
     5     2    13   ar
     6     2     3   ar
     7     3     4   ar
     8     4     5    1
     9     4    11   ar
    10     5    10   ar
    11     5     6   ar
    12     6     7   ar
    13     6    35    1
    14     7     8   ar
    15     7    36    1
    16     8     9   ar
    17     8    37    1
    18     9    10   ar
    19     9    38    1
    20    10    39    1
    21    11    12   ar
    22    11    40    1
    23    12    13   ar
    24    12    41    1
    25    13    14    1
    26    14    15    2
    27    14    16   am
    28    16    31    1
    29    16    17    1
    30    17    18    1
    31    17    42    1
    32    17    43    1
    33    18    19    1
    34    18    44    1
    35    18    45    1
    36    19    20    1
    37    19    27    1
    38    19    21    1
    39    21    22    1
    40    21    23    1
    41    21    31    1
    42    23    24    1
    43    23    46    1
    44    23    47    1
    45    24    25    1
    46    24    48    1
    47    24    49    1
    48    25    26    2
    49    25    27   am
    50    27    28    1
    51    28    30    1
    52    28    29    1
    53    28    50    1
    54    29    30    1
    55    29    51    1
    56    29    52    1
    57    30    53    1
    58    30    54    1
    59    31    55    1
    60    31    56    1
@<TRIPOS>SUBSTRUCTURE
     1 ZINC000130059363        1 TEMP              0 ****  ****    0 ROOT


##########                                Name:    ZINC000002873519
##########                DOCK_Rotatable_Bonds:                   5
##########                         Heavy_Atoms:                  25
##########                    Molecular_Weight:             375.207
##########                DOCK_Rotatable_Bonds:                   5
##########                       Formal_Charge:               -0.02
##########                     HBond_Acceptors:                   6
##########                        HBond_Donors:                   0
##########                         Heavy_Atoms:                  25
##########                          Grid_Score:          -27.588840
##########                     Grid_vdw_energy:          -27.500216
##########                      Grid_es_energy:           -0.088625
##########           Internal_energy_repulsive:            7.954102

@<TRIPOS>MOLECULE
ZINC000002873519
 37 39 1 0 0
SMALL
USER_CHARGES


@<TRIPOS>ATOM
      1 C1        -12.5295   -1.9031   53.7214 C.3     1  ZINC000002873519   -0.1500
      2 C2        -11.4670   -2.7840   54.3266 C.2     1  ZINC000002873519    0.4500
      3 O3        -11.1040   -3.7791   53.7453 O.2     1  ZINC000002873519   -0.4800
      4 O4        -10.9235   -2.4629   55.5118 O.3     1  ZINC000002873519   -0.2900
      5 C5        -11.7227   -2.5646   56.6041 C.ar    1  ZINC000002873519    0.1200
      6 C6        -12.4296   -3.7314   56.8428 C.ar    1  ZINC000002873519   -0.1100
      7 C7        -13.2430   -3.8351   57.9553 C.ar    1  ZINC000002873519   -0.0800
      8 C8        -13.3601   -2.7753   58.8423 C.ar    1  ZINC000002873519   -0.0400
      9 Cl9       -14.3861   -2.9236   60.2347 Cl      1  ZINC000002873519   -0.0500
     10 C10       -12.6655   -1.6051   58.6237 C.ar    1  ZINC000002873519   -0.0800
     11 C11       -11.8326   -1.4875   57.5025 C.ar    1  ZINC000002873519   -0.0700
     12 C12       -11.0908   -0.2490   57.2622 C.2     1  ZINC000002873519    0.0400
     13 C13       -10.3246    0.3035   58.2698 C.2     1  ZINC000002873519   -0.1900
     14 C14       -10.1265   -0.2064   59.6376 C.2     1  ZINC000002873519   -0.2000
     15 C15        -9.3011    0.6650   60.2550 C.2     1  ZINC000002873519    0.1200
     16 C16        -8.8407    0.5301   61.6513 C.ar    1  ZINC000002873519   -0.0400
     17 C17        -8.0118    1.5037   62.2136 C.ar    1  ZINC000002873519   -0.0800
     18 C18        -7.5851    1.3718   63.5182 C.ar    1  ZINC000002873519   -0.1100
     19 C19        -7.9764    0.2768   64.2706 C.ar    1  ZINC000002873519   -0.0200
     20 Cl20       -7.4349    0.1182   65.9123 Cl      1  ZINC000002873519   -0.0600
     21 C21        -8.7982   -0.6919   63.7190 C.ar    1  ZINC000002873519   -0.1100
     22 C22        -9.2368   -0.5687   62.4173 C.ar    1  ZINC000002873519   -0.0800
     23 O23        -8.9508    1.6740   59.4325 O.3     1  ZINC000002873519   -0.2600
     24 C24        -9.5137    1.5349   58.2187 C.2     1  ZINC000002873519    0.5200
     25 O25        -9.3860    2.2830   57.2676 O.2     1  ZINC000002873519   -0.4200
     26 H26       -13.5118   -2.2364   54.0562 H       1  ZINC000002873519    0.1100
     27 H27       -12.3689   -0.8719   54.0357 H       1  ZINC000002873519    0.1000
     28 H28       -12.4762   -1.9640   52.6344 H       1  ZINC000002873519    0.1100
     29 H29       -12.3452   -4.5621   56.1577 H       1  ZINC000002873519    0.1500
     30 H30       -13.7916   -4.7477   58.1351 H       1  ZINC000002873519    0.1500
     31 H31       -12.7599   -0.7821   59.3166 H       1  ZINC000002873519    0.1500
     32 H32       -11.1423    0.2328   56.2970 H       1  ZINC000002873519    0.1500
     33 H33       -10.5573   -1.1008   60.0629 H       1  ZINC000002873519    0.1700
     34 H34        -7.7054    2.3577   61.6276 H       1  ZINC000002873519    0.1400
     35 H35        -6.9442    2.1239   63.9542 H       1  ZINC000002873519    0.1400
     36 H36        -9.0995   -1.5437   64.3108 H       1  ZINC000002873519    0.1400
     37 H37        -9.8776   -1.3248   61.9883 H       1  ZINC000002873519    0.1400
@<TRIPOS>BOND
     1     1     2    1
     2     1    26    1
     3     1    27    1
     4     1    28    1
     5     2     3    2
     6     2     4    1
     7     4     5    1
     8     5    11   ar
     9     5     6   ar
    10     6     7   ar
    11     6    29    1
    12     7     8   ar
    13     7    30    1
    14     8     9    1
    15     8    10   ar
    16    10    11   ar
    17    10    31    1
    18    11    12    1
    19    12    13    2
    20    12    32    1
    21    13    24    1
    22    13    14    1
    23    14    15    2
    24    14    33    1
    25    15    16    1
    26    15    23    1
    27    16    22   ar
    28    16    17   ar
    29    17    18   ar
    30    17    34    1
    31    18    19   ar
    32    18    35    1
    33    19    20    1
    34    19    21   ar
    35    21    22   ar
    36    21    36    1
    37    22    37    1
    38    23    24    1
    39    24    25    2
@<TRIPOS>SUBSTRUCTURE
     1 ZINC000002873519        1 TEMP              0 ****  ****    0 ROOT


##########                                Name:    ZINC000429196987
##########                DOCK_Rotatable_Bonds:                   7
##########                         Heavy_Atoms:                  28
##########                    Molecular_Weight:             403.505
##########                DOCK_Rotatable_Bonds:                   7
##########                       Formal_Charge:          -0.0399997
##########                     HBond_Acceptors:                   9
##########                        HBond_Donors:                   1
##########                         Heavy_Atoms:                  28
##########                          Grid_Score:          -27.551188
##########                     Grid_vdw_energy:          -29.151171
##########                      Grid_es_energy:            1.599982
##########           Internal_energy_repulsive:           14.585740

@<TRIPOS>MOLECULE
ZINC000429196987
 53 55 1 0 0
SMALL
USER_CHARGES


@<TRIPOS>ATOM
      1 C1        -16.5788   -3.0007   58.9202 C.3     1  ZINC000429196987    0.0800
      2 N2        -15.1392   -3.0553   58.6539 N.am    1  ZINC000429196987   -0.6300
      3 C3        -14.2263   -3.5883   59.6682 C.3     1  ZINC000429196987    0.1600
      4 C4        -13.5803   -2.4478   60.4117 C.ar    1  ZINC000429196987   -0.0600
      5 C5        -14.3014   -1.7423   61.3569 C.ar    1  ZINC000429196987   -0.1300
      6 C6        -13.7088   -0.6961   62.0389 C.ar    1  ZINC000429196987   -0.0300
      7 C7        -12.3951   -0.3557   61.7762 C.ar    1  ZINC000429196987   -0.6600
      8 S8        -11.6399    0.9782   62.6453 S.o2    1  ZINC000429196987    2.5000
      9 C9        -12.6277    2.4306   62.1923 C.3     1  ZINC000429196987   -0.6500
     10 O10       -11.8285    0.6547   64.0161 O.2     1  ZINC000429196987   -0.9400
     11 O11       -10.3365    1.0674   62.0863 O.2     1  ZINC000429196987   -0.9400
     12 C12       -11.6736   -1.0621   60.8321 C.ar    1  ZINC000429196987   -0.0300
     13 C13       -12.2649   -2.1107   60.1528 C.ar    1  ZINC000429196987   -0.1100
     14 C14       -14.6547   -2.6152   57.4758 C.2     1  ZINC000429196987    0.7100
     15 O15       -15.4122   -2.1715   56.6346 O.2     1  ZINC000429196987   -0.5800
     16 N16       -13.3305   -2.6669   57.2301 N.am    1  ZINC000429196987   -0.7400
     17 C17       -12.8041   -2.1901   55.9488 C.3     1  ZINC000429196987    0.1600
     18 C18       -12.0737   -0.8607   56.1584 C.3     1  ZINC000429196987   -0.1300
     19 C19       -11.4741   -0.3984   54.8284 C.3     1  ZINC000429196987    0.0700
     20 N20       -10.5409   -1.4170   54.3305 N.3     1  ZINC000429196987   -0.4700
     21 C21        -9.8794   -0.9724   53.1910 C.ar    1  ZINC000429196987    0.2500
     22 C22        -9.1691    0.2272   53.2165 C.ar    1  ZINC000429196987   -0.1300
     23 C23        -8.5274    0.6260   52.0546 C.ar    1  ZINC000429196987   -0.1000
     24 C24        -8.6311   -0.1920   50.9383 C.ar    1  ZINC000429196987    0.0200
     25 N25        -9.3245   -1.3112   51.0032 N.ar    1  ZINC000429196987   -0.2200
     26 N26        -9.9167   -1.6895   52.0773 N.ar    1  ZINC000429196987   -0.2800
     27 C27       -11.2291   -2.6891   54.0768 C.3     1  ZINC000429196987    0.0600
     28 C28       -11.8214   -3.2198   55.3843 C.3     1  ZINC000429196987   -0.1200
     29 H29       -16.8267   -2.0454   59.3829 H       1  ZINC000429196987    0.0600
     30 H30       -17.1258   -3.1033   57.9830 H       1  ZINC000429196987    0.0700
     31 H31       -16.8549   -3.8128   59.5929 H       1  ZINC000429196987    0.0800
     32 H32       -14.7844   -4.2092   60.3689 H       1  ZINC000429196987    0.1000
     33 H33       -13.4562   -4.1890   59.1842 H       1  ZINC000429196987    0.0900
     34 H34       -15.3279   -2.0083   61.5621 H       1  ZINC000429196987    0.1300
     35 H35       -14.2723   -0.1445   62.7769 H       1  ZINC000429196987    0.1400
     36 H36       -13.6619    2.2774   62.5010 H       1  ZINC000429196987    0.1300
     37 H37       -12.2266    3.3128   62.6911 H       1  ZINC000429196987    0.1300
     38 H38       -12.5884    2.5743   61.1125 H       1  ZINC000429196987    0.1300
     39 H39       -10.6470   -0.7964   60.6270 H       1  ZINC000429196987    0.1400
     40 H40       -11.7013   -2.6625   59.4151 H       1  ZINC000429196987    0.1400
     41 H41       -12.7260   -3.0198   57.9017 H       1  ZINC000429196987    0.4000
     42 H42       -13.6262   -2.0484   55.2472 H       1  ZINC000429196987    0.0900
     43 H43       -12.7782   -0.1116   56.5200 H       1  ZINC000429196987    0.0800
     44 H44       -11.2768   -0.9947   56.8899 H       1  ZINC000429196987    0.0700
     45 H45       -12.2729   -0.2514   54.1016 H       1  ZINC000429196987    0.0600
     46 H46       -10.9412    0.5407   54.9773 H       1  ZINC000429196987    0.0900
     47 H47        -9.1208    0.8269   54.1134 H       1  ZINC000429196987    0.1500
     48 H48        -7.9636    1.5465   52.0188 H       1  ZINC000429196987    0.1500
     49 H49        -8.1437    0.0886   50.0162 H       1  ZINC000429196987    0.1700
     50 H50       -12.0290   -2.5313   53.3534 H       1  ZINC000429196987    0.0500
     51 H51       -10.5182   -3.4138   53.6797 H       1  ZINC000429196987    0.0900
     52 H52       -11.0205   -3.3910   56.1036 H       1  ZINC000429196987    0.0800
     53 H53       -12.3455   -4.1562   55.1928 H       1  ZINC000429196987    0.0800
@<TRIPOS>BOND
     1     1     2    1
     2     1    29    1
     3     1    30    1
     4     1    31    1
     5     2     3    1
     6     2    14   am
     7     3     4    1
     8     3    32    1
     9     3    33    1
    10     4    13   ar
    11     4     5   ar
    12     5     6   ar
    13     5    34    1
    14     6     7   ar
    15     6    35    1
    16     7     8    1
    17     7    12   ar
    18     8     9    1
    19     8    10    2
    20     8    11    2
    21     9    36    1
    22     9    37    1
    23     9    38    1
    24    12    13   ar
    25    12    39    1
    26    13    40    1
    27    14    15    2
    28    14    16   am
    29    16    17    1
    30    16    41    1
    31    17    28    1
    32    17    18    1
    33    17    42    1
    34    18    19    1
    35    18    43    1
    36    18    44    1
    37    19    20    1
    38    19    45    1
    39    19    46    1
    40    20    21    1
    41    20    27    1
    42    21    26   ar
    43    21    22   ar
    44    22    23   ar
    45    22    47    1
    46    23    24   ar
    47    23    48    1
    48    24    25   ar
    49    24    49    1
    50    25    26   ar
    51    27    28    1
    52    27    50    1
    53    27    51    1
    54    28    52    1
    55    28    53    1
@<TRIPOS>SUBSTRUCTURE
     1 ZINC000429196987        1 TEMP              0 ****  ****    0 ROOT


##########                                Name:    ZINC000504860563
##########                DOCK_Rotatable_Bonds:                   6
##########                         Heavy_Atoms:                  25
##########                    Molecular_Weight:             370.786
##########                DOCK_Rotatable_Bonds:                   6
##########                       Formal_Charge:                0.01
##########                     HBond_Acceptors:                   9
##########                        HBond_Donors:                   0
##########                         Heavy_Atoms:                  25
##########                          Grid_Score:          -27.536297
##########                     Grid_vdw_energy:          -26.754726
##########                      Grid_es_energy:           -0.781570
##########           Internal_energy_repulsive:           13.991736

@<TRIPOS>MOLECULE
ZINC000504860563
 42 44 1 0 0
SMALL
USER_CHARGES


@<TRIPOS>ATOM
      1 O1         -8.9396    0.1689   51.1682 O.2     1  ZINC000504860563   -0.5100
      2 C2         -9.9730    0.5568   51.6773 C.2     1  ZINC000504860563    0.5700
      3 C3        -10.2880    2.0010   51.7024 C.ar    1  ZINC000504860563    0.0500
      4 N4        -11.3258    2.4620   51.0133 N.ar    1  ZINC000504860563   -0.4100
      5 C5        -11.6400    3.7379   51.0094 C.ar    1  ZINC000504860563    0.0600
      6 C6        -10.8956    4.6608   51.7295 C.ar    1  ZINC000504860563   -0.1000
      7 C7         -9.8048    4.2305   52.4635 C.ar    1  ZINC000504860563   -0.1700
      8 C8         -9.4945    2.8724   52.4566 C.ar    1  ZINC000504860563    0.1400
      9 O9         -8.4345    2.4038   53.1615 O.3     1  ZINC000504860563   -0.2600
     10 C10        -8.7188    1.7284   54.3883 C.3     1  ZINC000504860563   -0.0100
     11 C11        -8.1445    2.5311   55.5574 C.3     1  ZINC000504860563    0.2800
     12 F12        -6.7484    2.5502   55.4687 F       1  ZINC000504860563   -0.1900
     13 F13        -8.6329    3.8412   55.5081 F       1  ZINC000504860563   -0.1900
     14 N14       -10.8343   -0.3302   52.2139 N.am    1  ZINC000504860563   -0.6000
     15 C15       -10.5324   -1.7681   52.2019 C.3     1  ZINC000504860563    0.0800
     16 C16       -10.6389   -2.3062   53.6322 C.3     1  ZINC000504860563   -0.1500
     17 C17       -12.0155   -1.9577   54.2029 C.3     1  ZINC000504860563    0.1600
     18 N18       -12.1331   -2.4995   55.5589 N.pl3   1  ZINC000504860563   -0.3600
     19 C19       -11.6285   -1.9457   56.6824 C.2     1  ZINC000504860563    0.0700
     20 C20       -11.9537   -2.7507   57.7209 C.2     1  ZINC000504860563   -0.1900
     21 Cl21      -11.5411   -2.4868   59.3864 Cl      1  ZINC000504860563   -0.0400
     22 C22       -12.6819   -3.8331   57.2147 C.2     1  ZINC000504860563    0.0600
     23 N23       -12.7943   -3.6806   55.9200 N.2     1  ZINC000504860563   -0.2800
     24 C24       -12.1819   -0.4369   54.2453 C.3     1  ZINC000504860563   -0.1400
     25 C25       -12.0901    0.1229   52.8274 C.3     1  ZINC000504860563    0.1200
     26 H26       -12.4914    4.0736   50.4360 H       1  ZINC000504860563    0.1700
     27 H27       -11.1651    5.7066   51.7168 H       1  ZINC000504860563    0.1500
     28 H28        -9.2102    4.9303   53.0319 H       1  ZINC000504860563    0.1500
     29 H29        -9.7980    1.6327   54.5087 H       1  ZINC000504860563    0.1000
     30 H30        -8.2659    0.7372   54.3708 H       1  ZINC000504860563    0.1000
     31 H31        -8.4426    2.0673   56.4977 H       1  ZINC000504860563    0.1300
     32 H32       -11.2470   -2.2861   51.5624 H       1  ZINC000504860563    0.0700
     33 H33        -9.5214   -1.9261   51.8264 H       1  ZINC000504860563    0.1600
     34 H34       -10.5119   -3.3888   53.6240 H       1  ZINC000504860563    0.0900
     35 H35        -9.8636   -1.8531   54.2501 H       1  ZINC000504860563    0.0700
     36 H36       -12.7908   -2.3902   53.5705 H       1  ZINC000504860563    0.1100
     37 H37       -11.0657   -1.0258   56.7415 H       1  ZINC000504860563    0.1800
     38 H38       -13.0847   -4.6513   57.7932 H       1  ZINC000504860563    0.1900
     39 H39       -13.1532   -0.1891   54.6735 H       1  ZINC000504860563    0.0900
     40 H40       -11.3921   -0.0015   54.8573 H       1  ZINC000504860563    0.0800
     41 H41       -12.1089    1.2121   52.8626 H       1  ZINC000504860563    0.1000
     42 H42       -12.9307   -0.2402   52.2359 H       1  ZINC000504860563    0.0800
@<TRIPOS>BOND
     1     1     2    2
     2     2     3    1
     3     2    14   am
     4     3     8   ar
     5     3     4   ar
     6     4     5   ar
     7     5     6   ar
     8     5    26    1
     9     6     7   ar
    10     6    27    1
    11     7     8   ar
    12     7    28    1
    13     8     9    1
    14     9    10    1
    15    10    11    1
    16    10    29    1
    17    10    30    1
    18    11    12    1
    19    11    13    1
    20    11    31    1
    21    14    25    1
    22    14    15    1
    23    15    16    1
    24    15    32    1
    25    15    33    1
    26    16    17    1
    27    16    34    1
    28    16    35    1
    29    17    18    1
    30    17    24    1
    31    17    36    1
    32    18    23    1
    33    18    19    1
    34    19    20    2
    35    19    37    1
    36    20    21    1
    37    20    22    1
    38    22    23    2
    39    22    38    1
    40    24    25    1
    41    24    39    1
    42    24    40    1
    43    25    41    1
    44    25    42    1
@<TRIPOS>SUBSTRUCTURE
     1 ZINC000504860563        1 TEMP              0 ****  ****    0 ROOT


##########                                Name:    ZINC000942661662
##########                DOCK_Rotatable_Bonds:                   6
##########                         Heavy_Atoms:                  25
##########                    Molecular_Weight:             343.426
##########                DOCK_Rotatable_Bonds:                   6
##########                       Formal_Charge:           0.0399997
##########                     HBond_Acceptors:                   6
##########                        HBond_Donors:                   1
##########                         Heavy_Atoms:                  25
##########                          Grid_Score:          -27.533281
##########                     Grid_vdw_energy:          -25.669277
##########                      Grid_es_energy:           -1.864004
##########           Internal_energy_repulsive:           28.160767

@<TRIPOS>MOLECULE
ZINC000942661662
 50 52 1 0 0
SMALL
USER_CHARGES


@<TRIPOS>ATOM
      1 C1        -14.0345   -3.6154   58.1548 C.3     1  ZINC000942661662   -0.1700
      2 C2        -12.5270   -3.3578   58.1117 C.3     1  ZINC000942661662    0.1000
      3 N3        -12.2802   -1.9662   57.7258 N.am    1  ZINC000942661662   -0.6000
      4 C4        -11.8233   -1.0851   58.6374 C.2     1  ZINC000942661662    0.6000
      5 O5        -11.6184    0.0702   58.3170 O.2     1  ZINC000942661662   -0.5200
      6 C6        -11.5721   -1.5212   60.0226 C.2     1  ZINC000942661662   -0.2400
      7 C7        -10.3681   -1.5885   60.6604 C.2     1  ZINC000942661662    0.0700
      8 C8         -9.0331   -1.2235   60.0643 C.3     1  ZINC000942661662   -0.0900
      9 O9        -10.5739   -2.0331   61.9039 O.3     1  ZINC000942661662   -0.1700
     10 C10       -11.8779   -2.2660   62.1198 C.2     1  ZINC000942661662   -0.0300
     11 C11       -12.5674   -1.9689   61.0077 C.2     1  ZINC000942661662   -0.1900
     12 C12       -12.5299   -1.5327   56.3488 C.3     1  ZINC000942661662    0.1400
     13 H13       -13.4307   -0.9217   56.2911 H       1  ZINC000942661662    0.1100
     14 C14       -12.6208   -2.7495   55.3905 C.3     1  ZINC000942661662   -0.1400
     15 C15       -12.1972   -2.1521   54.0321 C.3     1  ZINC000942661662    0.1000
     16 N16       -11.4114   -0.9418   54.3137 N.am    1  ZINC000942661662   -0.6200
     17 C17       -10.8762   -0.1200   53.3891 C.2     1  ZINC000942661662    0.6100
     18 O18       -11.0286   -0.3552   52.2049 O.2     1  ZINC000942661662   -0.5200
     19 C19       -10.1103    1.0578   53.8102 C.2     1  ZINC000942661662   -0.0600
     20 C20       -10.5099    2.3726   53.6983 C.2     1  ZINC000942661662   -0.0700
     21 C21       -11.8116    2.8669   53.1220 C.3     1  ZINC000942661662   -0.0900
     22 C22        -9.4799    3.1610   54.2209 C.2     1  ZINC000942661662   -0.2100
     23 C23        -8.4910    2.3324   54.6336 C.2     1  ZINC000942661662    0.0500
     24 C24        -7.1912    2.7642   55.2622 C.3     1  ZINC000942661662   -0.0900
     25 N25        -8.8640    1.0515   54.3948 N.pl3   1  ZINC000942661662   -0.5400
     26 C26       -11.3070   -0.7745   55.7751 C.3     1  ZINC000942661662    0.0900
     27 H27       -14.2182   -4.6507   58.4420 H       1  ZINC000942661662    0.0700
     28 H28       -14.4963   -2.9490   58.8833 H       1  ZINC000942661662    0.0600
     29 H29       -14.4631   -3.4300   57.1699 H       1  ZINC000942661662    0.0600
     30 H30       -12.0984   -3.5432   59.0966 H       1  ZINC000942661662    0.0900
     31 H31       -12.0651   -4.0243   57.3832 H       1  ZINC000942661662    0.0800
     32 H32        -8.8301   -0.1681   60.2467 H       1  ZINC000942661662    0.0900
     33 H33        -8.2520   -1.8286   60.5245 H       1  ZINC000942661662    0.0900
     34 H34        -9.0516   -1.4096   58.9904 H       1  ZINC000942661662    0.1000
     35 H35       -12.3047   -2.6297   63.0428 H       1  ZINC000942661662    0.2100
     36 H36       -13.6347   -2.0496   60.8632 H       1  ZINC000942661662    0.1600
     37 H37       -11.9309   -3.5353   55.6982 H       1  ZINC000942661662    0.1000
     38 H38       -13.6420   -3.1281   55.3436 H       1  ZINC000942661662    0.0900
     39 H39       -11.5874   -2.8710   53.4850 H       1  ZINC000942661662    0.0700
     40 H40       -13.0810   -1.8929   53.4492 H       1  ZINC000942661662    0.0700
     41 H41       -12.5574    2.9341   53.9140 H       1  ZINC000942661662    0.0700
     42 H42       -11.6622    3.8517   52.6792 H       1  ZINC000942661662    0.0600
     43 H43       -12.1567    2.1725   52.3559 H       1  ZINC000942661662    0.0800
     44 H44        -9.4738    4.2391   54.2837 H       1  ZINC000942661662    0.1400
     45 H45        -7.3106    2.8160   56.3445 H       1  ZINC000942661662    0.0800
     46 H46        -6.4117    2.0428   55.0168 H       1  ZINC000942661662    0.0700
     47 H47        -6.9111    3.7458   54.8802 H       1  ZINC000942661662    0.0900
     48 H48        -8.3379    0.2620   54.5968 H       1  ZINC000942661662    0.4100
     49 H49       -11.3553    0.2816   56.0405 H       1  ZINC000942661662    0.0800
     50 H50       -10.3809   -1.2167   56.1423 H       1  ZINC000942661662    0.1000
@<TRIPOS>BOND
     1     1     2    1
     2     1    27    1
     3     1    28    1
     4     1    29    1
     5     2     3    1
     6     2    30    1
     7     2    31    1
     8     3     4   am
     9     3    12    1
    10     4     5    2
    11     4     6    1
    12     6    11    1
    13     6     7    2
    14     7     8    1
    15     7     9    1
    16     8    32    1
    17     8    33    1
    18     8    34    1
    19     9    10    1
    20    10    11    2
    21    10    35    1
    22    11    36    1
    23    12    13    1
    24    12    26    1
    25    12    14    1
    26    14    15    1
    27    14    37    1
    28    14    38    1
    29    15    16    1
    30    15    39    1
    31    15    40    1
    32    16    17   am
    33    16    26    1
    34    17    18    2
    35    17    19    1
    36    19    25    1
    37    19    20    2
    38    20    21    1
    39    20    22    1
    40    21    41    1
    41    21    42    1
    42    21    43    1
    43    22    23    2
    44    22    44    1
    45    23    24    1
    46    23    25    1
    47    24    45    1
    48    24    46    1
    49    24    47    1
    50    25    48    1
    51    26    49    1
    52    26    50    1
@<TRIPOS>SUBSTRUCTURE
     1 ZINC000942661662        1 TEMP              0 ****  ****    0 ROOT


##########                                Name:    ZINC000464752079
##########                DOCK_Rotatable_Bonds:                   7
##########                         Heavy_Atoms:                  29
##########                    Molecular_Weight:             404.413
##########                DOCK_Rotatable_Bonds:                   7
##########                       Formal_Charge:         7.45058e-08
##########                     HBond_Acceptors:                   8
##########                        HBond_Donors:                   1
##########                         Heavy_Atoms:                  29
##########                          Grid_Score:          -27.514008
##########                     Grid_vdw_energy:          -24.864239
##########                      Grid_es_energy:           -2.649769
##########           Internal_energy_repulsive:           17.622282

@<TRIPOS>MOLECULE
ZINC000464752079
 51 54 1 0 0
SMALL
USER_CHARGES


@<TRIPOS>ATOM
      1 C1         -3.8133    4.0650   55.1102 C.3     1  ZINC000464752079   -0.1200
      2 C2         -2.5255    4.7561   54.7423 C.ar    1  ZINC000464752079   -0.0800
      3 C3         -1.5815    5.0223   55.7160 C.ar    1  ZINC000464752079   -0.1200
      4 C4         -0.4001    5.6564   55.3785 C.ar    1  ZINC000464752079   -0.1200
      5 C5         -0.1631    6.0237   54.0673 C.ar    1  ZINC000464752079   -0.1300
      6 C6         -1.1071    5.7566   53.0932 C.ar    1  ZINC000464752079   -0.0900
      7 C7         -2.2862    5.1188   53.4298 C.ar    1  ZINC000464752079   -0.0800
      8 C8         -3.3152    4.8277   52.3680 C.3     1  ZINC000464752079    0.2000
      9 H9         -3.8602    3.9179   52.6198 H       1  ZINC000464752079    0.0900
     10 C10        -4.2972    6.0122   52.2499 C.3     1  ZINC000464752079   -0.1200
     11 C11        -4.5513    6.1020   50.7219 C.3     1  ZINC000464752079   -0.1300
     12 C12        -3.1625    5.7188   50.1526 C.3     1  ZINC000464752079    0.1000
     13 N13        -2.6564    4.6708   51.0630 N.am    1  ZINC000464752079   -0.6300
     14 C14        -1.7419    3.7320   50.7487 C.2     1  ZINC000464752079    0.7200
     15 O15        -1.3988    2.9149   51.5811 O.2     1  ZINC000464752079   -0.5700
     16 N16        -1.2078    3.6990   49.5118 N.am    1  ZINC000464752079   -0.7400
     17 C17        -0.2151    2.6774   49.1697 C.3     1  ZINC000464752079    0.1900
     18 C18        -0.0831    2.5871   47.6711 C.ar    1  ZINC000464752079   -0.1200
     19 C19         0.4699    3.6370   46.9625 C.ar    1  ZINC000464752079   -0.0500
     20 C20         0.5921    3.5574   45.5849 C.ar    1  ZINC000464752079    0.0100
     21 C21         0.1573    2.4173   44.9138 C.ar    1  ZINC000464752079    0.0800
     22 C22        -0.3955    1.3657   45.6263 C.ar    1  ZINC000464752079   -0.1800
     23 C23        -0.5116    1.4482   47.0054 C.ar    1  ZINC000464752079    0.1400
     24 O24        -1.0540    0.4159   47.7048 O.3     1  ZINC000464752079   -0.3100
     25 C25        -2.1338   -0.2887   47.0886 C.3     1  ZINC000464752079    0.4100
     26 F26        -2.5301   -1.3477   47.9125 F       1  ZINC000464752079   -0.2000
     27 F27        -3.2114    0.5830   46.8988 F       1  ZINC000464752079   -0.2000
     28 O28         0.3851    2.5836   43.5782 O.3     1  ZINC000464752079   -0.3000
     29 C29         0.5862    3.9975   43.3952 C.3     1  ZINC000464752079    0.2100
     30 O30         1.0926    4.4385   44.6689 O.3     1  ZINC000464752079   -0.3000
     31 H31        -3.6831    2.9860   55.0271 H       1  ZINC000464752079    0.0700
     32 H32        -4.0829    4.3205   56.1350 H       1  ZINC000464752079    0.0700
     33 H33        -4.6051    4.3885   54.4347 H       1  ZINC000464752079    0.0700
     34 H34        -1.7667    4.7353   56.7405 H       1  ZINC000464752079    0.1200
     35 H35         0.3372    5.8651   56.1395 H       1  ZINC000464752079    0.1200
     36 H36         0.7594    6.5196   53.8037 H       1  ZINC000464752079    0.1200
     37 H37        -0.9220    6.0439   52.0687 H       1  ZINC000464752079    0.1100
     38 H38        -5.2239    5.7997   52.7831 H       1  ZINC000464752079    0.0900
     39 H39        -3.8403    6.9302   52.6194 H       1  ZINC000464752079    0.0800
     40 H40        -5.3124    5.3869   50.4098 H       1  ZINC000464752079    0.0800
     41 H41        -4.8268    7.1156   50.4305 H       1  ZINC000464752079    0.0900
     42 H42        -3.2627    5.3248   49.1413 H       1  ZINC000464752079    0.0700
     43 H43        -2.4979    6.5827   50.1601 H       1  ZINC000464752079    0.0700
     44 H44        -1.4807    4.3516   48.8480 H       1  ZINC000464752079    0.4000
     45 H45         0.7479    2.9468   49.6036 H       1  ZINC000464752079    0.0800
     46 H46        -0.5348    1.7132   49.5650 H       1  ZINC000464752079    0.0800
     47 H47         0.8068    4.5210   47.4835 H       1  ZINC000464752079    0.1500
     48 H48        -0.7333    0.4805   45.1078 H       1  ZINC000464752079    0.1500
     49 H49        -1.8090   -0.6802   46.1246 H       1  ZINC000464752079    0.1900
     50 H50         1.3170    4.1817   42.6078 H       1  ZINC000464752079    0.1400
     51 H51        -0.3578    4.4921   43.1663 H       1  ZINC000464752079    0.0900
@<TRIPOS>BOND
     1     1     2    1
     2     1    31    1
     3     1    32    1
     4     1    33    1
     5     2     7   ar
     6     2     3   ar
     7     3     4   ar
     8     3    34    1
     9     4     5   ar
    10     4    35    1
    11     5     6   ar
    12     5    36    1
    13     6     7   ar
    14     6    37    1
    15     7     8    1
    16     8     9    1
    17     8    13    1
    18     8    10    1
    19    10    11    1
    20    10    38    1
    21    10    39    1
    22    11    12    1
    23    11    40    1
    24    11    41    1
    25    12    13    1
    26    12    42    1
    27    12    43    1
    28    13    14   am
    29    14    15    2
    30    14    16   am
    31    16    17    1
    32    16    44    1
    33    17    18    1
    34    17    45    1
    35    17    46    1
    36    18    23   ar
    37    18    19   ar
    38    19    20   ar
    39    19    47    1
    40    20    30    1
    41    20    21   ar
    42    21    22   ar
    43    21    28    1
    44    22    23   ar
    45    22    48    1
    46    23    24    1
    47    24    25    1
    48    25    26    1
    49    25    27    1
    50    25    49    1
    51    28    29    1
    52    29    30    1
    53    29    50    1
    54    29    51    1
@<TRIPOS>SUBSTRUCTURE
     1 ZINC000464752079        1 TEMP              0 ****  ****    0 ROOT


##########                                Name:    ZINC001248546333
##########                DOCK_Rotatable_Bonds:                   6
##########                         Heavy_Atoms:                  27
##########                    Molecular_Weight:             378.397
##########                DOCK_Rotatable_Bonds:                   6
##########                       Formal_Charge:         3.94881e-07
##########                     HBond_Acceptors:                   8
##########                        HBond_Donors:                   1
##########                         Heavy_Atoms:                  27
##########                          Grid_Score:          -27.506931
##########                     Grid_vdw_energy:          -27.150835
##########                      Grid_es_energy:           -0.356097
##########           Internal_energy_repulsive:           29.980076

@<TRIPOS>MOLECULE
ZINC001248546333
 48 50 1 0 0
SMALL
USER_CHARGES


@<TRIPOS>ATOM
      1 C1         -2.1274    6.3509   57.3118 C.3     1  ZINC001248546333   -0.1200
      2 C2         -1.6119    6.4956   55.9031 C.ar    1  ZINC001248546333   -0.0800
      3 C3         -0.5909    7.3880   55.6303 C.ar    1  ZINC001248546333   -0.1200
      4 C4         -0.1118    7.5268   54.3396 C.ar    1  ZINC001248546333   -0.1100
      5 C5         -0.6504    6.7746   53.3162 C.ar    1  ZINC001248546333   -0.1100
      6 C6         -1.6803    5.8722   53.5849 C.ar    1  ZINC001248546333   -0.0600
      7 C7         -2.2619    5.0630   52.4932 C.2     1  ZINC001248546333   -0.0600
      8 C8         -1.7750    5.2237   51.2866 C.2     1  ZINC001248546333   -0.1700
      9 C9         -2.2830    4.4803   50.0825 C.3     1  ZINC001248546333    0.1500
     10 N10        -3.1801    3.4028   50.5240 N.am    1  ZINC001248546333   -0.6300
     11 C11        -3.1163    2.1709   49.9811 C.2     1  ZINC001248546333    0.7200
     12 O12        -3.8702    1.2977   50.3648 O.2     1  ZINC001248546333   -0.5800
     13 N13        -2.2166    1.9070   49.0129 N.am    1  ZINC001248546333   -0.7500
     14 C14        -2.1471    0.5679   48.4228 C.3     1  ZINC001248546333    0.2000
     15 C15        -0.7043    0.1798   48.2262 C.2     1  ZINC001248546333    0.0700
     16 C16         0.3187    1.0228   47.9543 C.2     1  ZINC001248546333   -0.2000
     17 C17         1.4873    0.2614   47.8486 C.2     1  ZINC001248546333   -0.0200
     18 C18         2.8658    0.7947   47.5546 C.3     1  ZINC001248546333    0.5600
     19 F19         3.0206    2.0461   48.1604 F       1  ZINC001248546333   -0.1700
     20 F20         3.8252   -0.0897   48.0590 F       1  ZINC001248546333   -0.1700
     21 F21         3.0311    0.9226   46.1713 F       1  ZINC001248546333   -0.1600
     22 N22         1.1770   -0.9935   48.0498 N.2     1  ZINC001248546333   -0.2200
     23 N23        -0.2000   -1.0700   48.2955 N.pl3   1  ZINC001248546333   -0.3400
     24 C24        -0.9600   -2.2920   48.5702 C.3     1  ZINC001248546333    0.0900
     25 C25        -4.1522    3.7237   51.5834 C.3     1  ZINC001248546333    0.1300
     26 C26        -3.3655    4.1087   52.8411 C.3     1  ZINC001248546333   -0.1000
     27 C27        -2.1555    5.7334   54.8893 C.ar    1  ZINC001248546333   -0.1100
     28 H28        -1.5560    5.5812   57.8306 H       1  ZINC001248546333    0.0700
     29 H29        -2.0198    7.2997   57.8374 H       1  ZINC001248546333    0.0700
     30 H30        -3.1796    6.0670   57.2863 H       1  ZINC001248546333    0.0700
     31 H31        -0.1659    7.9792   56.4279 H       1  ZINC001248546333    0.1200
     32 H32         0.6850    8.2258   54.1329 H       1  ZINC001248546333    0.1200
     33 H33        -0.2758    6.8841   52.3092 H       1  ZINC001248546333    0.1200
     34 H34        -0.9669    5.9272   51.1503 H       1  ZINC001248546333    0.1200
     35 H35        -2.8286    5.1660   49.4345 H       1  ZINC001248546333    0.0800
     36 H36        -1.4418    4.0531   49.5365 H       1  ZINC001248546333    0.0800
     37 H37        -1.6151    2.6037   48.7068 H       1  ZINC001248546333    0.4000
     38 H38        -2.6284   -0.1481   49.0891 H       1  ZINC001248546333    0.1000
     39 H39        -2.6578    0.5682   47.4599 H       1  ZINC001248546333    0.0900
     40 H40         0.2457    2.0941   47.8390 H       1  ZINC001248546333    0.1700
     41 H41        -0.9751   -2.4768   49.6443 H       1  ZINC001248546333    0.0900
     42 H42        -1.9810   -2.1741   48.2073 H       1  ZINC001248546333    0.1000
     43 H43        -0.4893   -3.1342   48.0632 H       1  ZINC001248546333    0.1000
     44 H44        -4.7799    4.5569   51.2675 H       1  ZINC001248546333    0.0700
     45 H45        -4.7726    2.8518   51.7908 H       1  ZINC001248546333    0.1000
     46 H46        -2.9442    3.2102   53.2920 H       1  ZINC001248546333    0.0800
     47 H47        -4.0374    4.5857   53.5546 H       1  ZINC001248546333    0.0900
     48 H48        -2.9525    5.0367   55.1038 H       1  ZINC001248546333    0.1200
@<TRIPOS>BOND
     1     1     2    1
     2     1    28    1
     3     1    29    1
     4     1    30    1
     5     2    27   ar
     6     2     3   ar
     7     3     4   ar
     8     3    31    1
     9     4     5   ar
    10     4    32    1
    11     5     6   ar
    12     5    33    1
    13     6     7    1
    14     6    27   ar
    15     7    26    1
    16     7     8    2
    17     8     9    1
    18     8    34    1
    19     9    10    1
    20     9    35    1
    21     9    36    1
    22    10    11   am
    23    10    25    1
    24    11    12    2
    25    11    13   am
    26    13    14    1
    27    13    37    1
    28    14    15    1
    29    14    38    1
    30    14    39    1
    31    15    23    1
    32    15    16    2
    33    16    17    1
    34    16    40    1
    35    17    18    1
    36    17    22    2
    37    18    19    1
    38    18    20    1
    39    18    21    1
    40    22    23    1
    41    23    24    1
    42    24    41    1
    43    24    42    1
    44    24    43    1
    45    25    26    1
    46    25    44    1
    47    25    45    1
    48    26    46    1
    49    26    47    1
    50    27    48    1
@<TRIPOS>SUBSTRUCTURE
     1 ZINC001248546333        1 TEMP              0 ****  ****    0 ROOT


##########                                Name:    ZINC001053433946
##########                DOCK_Rotatable_Bonds:                   6
##########                         Heavy_Atoms:                  24
##########                    Molecular_Weight:             337.419
##########                DOCK_Rotatable_Bonds:                   6
##########                       Formal_Charge:               -0.02
##########                     HBond_Acceptors:                   7
##########                        HBond_Donors:                   2
##########                         Heavy_Atoms:                  24
##########                          Grid_Score:          -27.476759
##########                     Grid_vdw_energy:          -26.331099
##########                      Grid_es_energy:           -1.145661
##########           Internal_energy_repulsive:           17.211452

@<TRIPOS>MOLECULE
ZINC001053433946
 51 54 1 0 0
SMALL
USER_CHARGES


@<TRIPOS>ATOM
      1 N1         -0.7975   -0.3805   47.8848 N.am    1  ZINC001053433946   -0.8300
      2 C2         -1.6575   -0.8333   46.9511 C.2     1  ZINC001053433946    0.5600
      3 O3         -1.7938   -2.0262   46.7797 O.2     1  ZINC001053433946   -0.5500
      4 C4         -2.4499    0.1427   46.1200 C.3     1  ZINC001053433946   -0.1600
      5 H5         -3.4606    0.3482   46.4725 H       1  ZINC001053433946    0.1400
      6 C6         -2.2169    0.1350   44.6079 C.3     1  ZINC001053433946   -0.1300
      7 C7         -1.6852    1.2911   45.4587 C.3     1  ZINC001053433946   -0.1700
      8 H8         -2.1929    2.2520   45.3756 H       1  ZINC001053433946    0.1400
      9 C9         -0.1973    1.3598   45.6873 C.2     1  ZINC001053433946    0.5400
     10 O10         0.5322    0.5306   45.1861 O.2     1  ZINC001053433946   -0.5200
     11 N11         0.3229    2.3429   46.4486 N.am    1  ZINC001053433946   -0.6100
     12 C12         1.7719    2.4321   46.6871 C.3     1  ZINC001053433946    0.0700
     13 C13         2.0172    2.5250   48.1967 C.3     1  ZINC001053433946    0.0500
     14 O14         1.2555    3.6105   48.7348 O.3     1  ZINC001053433946   -0.3400
     15 C15        -0.1505    3.4830   48.5417 C.3     1  ZINC001053433946    0.0800
     16 C16        -0.8040    2.4220   49.4373 C.3     1  ZINC001053433946   -0.0100
     17 N17        -1.0229    3.5213   50.4045 N.3     1  ZINC001053433946   -0.4700
     18 C18        -2.3668    3.4450   50.9930 C.3     1  ZINC001053433946    0.0200
     19 C19        -2.4178    4.3003   52.2606 C.3     1  ZINC001053433946   -0.1200
     20 H20        -1.8205    5.2006   52.1168 H       1  ZINC001053433946    0.0800
     21 C21        -3.8691    4.6907   52.5567 C.3     1  ZINC001053433946   -0.1200
     22 C22        -3.9164    5.4799   53.8686 C.3     1  ZINC001053433946   -0.1600
     23 C23        -3.3030    4.6333   54.9868 C.3     1  ZINC001053433946    0.0600
     24 O24        -1.9641    4.2788   54.6342 O.3     1  ZINC001053433946   -0.3800
     25 C25        -1.8606    3.4998   53.4407 C.3     1  ZINC001053433946    0.0700
     26 C26        -0.9779    4.5201   49.3126 C.3     1  ZINC001053433946    0.0200
     27 C27        -0.5411    3.3658   47.0635 C.3     1  ZINC001053433946    0.1000
     28 H28        -0.2867   -1.0088   48.4189 H       1  ZINC001053433946    0.4000
     29 H29        -0.6865    0.5735   48.0200 H       1  ZINC001053433946    0.4000
     30 H30        -1.4906   -0.5761   44.2142 H       1  ZINC001053433946    0.1100
     31 H31        -3.0744    0.3358   43.9656 H       1  ZINC001053433946    0.1200
     32 H32         2.2630    1.5432   46.2910 H       1  ZINC001053433946    0.1000
     33 H33         2.1690    3.3209   46.1967 H       1  ZINC001053433946    0.0800
     34 H34         1.7102    1.5939   48.6731 H       1  ZINC001053433946    0.0600
     35 H35         3.0773    2.6970   48.3831 H       1  ZINC001053433946    0.1100
     36 H36        -1.7249    2.0074   49.0274 H       1  ZINC001053433946    0.0800
     37 H37        -0.1117    1.6576   49.7901 H       1  ZINC001053433946    0.0900
     38 H38        -3.0992    3.8149   50.2754 H       1  ZINC001053433946    0.0500
     39 H39        -2.5951    2.4092   51.2441 H       1  ZINC001053433946    0.0800
     40 H40        -4.2532    5.3088   51.7452 H       1  ZINC001053433946    0.0700
     41 H41        -4.4769    3.7907   52.6504 H       1  ZINC001053433946    0.0700
     42 H42        -3.3493    6.4042   53.7584 H       1  ZINC001053433946    0.0700
     43 H43        -4.9520    5.7143   54.1155 H       1  ZINC001053433946    0.0700
     44 H44        -3.2950    5.2064   55.9140 H       1  ZINC001053433946    0.0900
     45 H45        -3.8945    3.7281   55.1238 H       1  ZINC001053433946    0.0500
     46 H46        -2.4332    2.5795   53.5564 H       1  ZINC001053433946    0.0500
     47 H47        -0.8145    3.2564   53.2550 H       1  ZINC001053433946    0.1000
     48 H48        -0.4239    5.4239   49.5661 H       1  ZINC001053433946    0.1000
     49 H49        -1.9503    4.7269   48.8656 H       1  ZINC001053433946    0.0900
     50 H50        -0.3966    4.3254   46.5672 H       1  ZINC001053433946    0.0800
     51 H51        -1.5846    3.0614   46.9813 H       1  ZINC001053433946    0.1000
@<TRIPOS>BOND
     1     1     2   am
     2     1    28    1
     3     1    29    1
     4     2     3    2
     5     2     4    1
     6     4     5    1
     7     4     7    1
     8     4     6    1
     9     6     7    1
    10     6    30    1
    11     6    31    1
    12     7     8    1
    13     7     9    1
    14     9    10    2
    15     9    11   am
    16    11    27    1
    17    11    12    1
    18    12    13    1
    19    12    32    1
    20    12    33    1
    21    13    14    1
    22    13    34    1
    23    13    35    1
    24    14    15    1
    25    15    26    1
    26    15    16    1
    27    15    27    1
    28    16    17    1
    29    16    36    1
    30    16    37    1
    31    17    18    1
    32    17    26    1
    33    18    19    1
    34    18    38    1
    35    18    39    1
    36    19    20    1
    37    19    25    1
    38    19    21    1
    39    21    22    1
    40    21    40    1
    41    21    41    1
    42    22    23    1
    43    22    42    1
    44    22    43    1
    45    23    24    1
    46    23    44    1
    47    23    45    1
    48    24    25    1
    49    25    46    1
    50    25    47    1
    51    26    48    1
    52    26    49    1
    53    27    50    1
    54    27    51    1
@<TRIPOS>SUBSTRUCTURE
     1 ZINC001053433946        1 TEMP              0 ****  ****    0 ROOT


##########                                Name:    ZINC000653668607
##########                DOCK_Rotatable_Bonds:                   5
##########                         Heavy_Atoms:                  28
##########                    Molecular_Weight:             379.459
##########                DOCK_Rotatable_Bonds:                   5
##########                       Formal_Charge:          0.00999918
##########                     HBond_Acceptors:                   6
##########                        HBond_Donors:                   2
##########                         Heavy_Atoms:                  28
##########                          Grid_Score:          -27.465296
##########                     Grid_vdw_energy:          -27.251375
##########                      Grid_es_energy:           -0.213920
##########           Internal_energy_repulsive:           10.695078

@<TRIPOS>MOLECULE
ZINC000653668607
 53 56 1 0 0
SMALL
USER_CHARGES


@<TRIPOS>ATOM
      1 C1        -14.3633   -0.1084   56.0760 C.3     1  ZINC000653668607    0.0300
      2 O2        -13.1042   -0.7736   55.9566 O.3     1  ZINC000653668607   -0.3200
      3 C3        -12.4697   -1.1054   57.1117 C.ar    1  ZINC000653668607    0.1300
      4 C4        -12.5833   -2.3889   57.6257 C.ar    1  ZINC000653668607   -0.2000
      5 C5        -11.9332   -2.7161   58.7967 C.ar    1  ZINC000653668607   -0.0800
      6 C6        -11.1652   -1.7725   59.4672 C.ar    1  ZINC000653668607   -0.1000
      7 C7        -10.4719   -2.2052   60.7328 C.3     1  ZINC000653668607   -0.0800
      8 C8        -10.0461   -0.9902   61.5544 C.3     1  ZINC000653668607   -0.1200
      9 C9         -9.2689   -0.0359   60.6399 C.3     1  ZINC000653668607   -0.1100
     10 C10       -10.2478    0.5787   59.6417 C.3     1  ZINC000653668607   -0.0600
     11 H11       -10.9208    1.2553   60.1683 H       1  ZINC000653668607    0.1000
     12 C12        -9.4777    1.3528   58.6030 C.2     1  ZINC000653668607    0.5200
     13 O13        -9.3923    2.5598   58.6859 O.2     1  ZINC000653668607   -0.5100
     14 N14        -8.8840    0.7039   57.5818 N.am    1  ZINC000653668607   -0.6700
     15 C15        -8.1690    1.4225   56.6174 C.ar    1  ZINC000653668607    0.1500
     16 C16        -8.7669    1.7450   55.4058 C.ar    1  ZINC000653668607   -0.1100
     17 C17        -8.0614    2.4546   54.4528 C.ar    1  ZINC000653668607   -0.0900
     18 C18        -6.7601    2.8456   54.7015 C.ar    1  ZINC000653668607   -0.1200
     19 C19        -6.1562    2.5258   55.9113 C.ar    1  ZINC000653668607    0.1700
     20 N20        -4.8376    2.9218   56.1623 N.am    1  ZINC000653668607   -0.5800
     21 C21        -4.4694    4.3296   56.0044 C.3     1  ZINC000653668607    0.1100
     22 C22        -3.3181    4.6586   56.9606 C.3     1  ZINC000653668607   -0.1500
     23 C23        -2.1662    3.6848   56.6906 C.3     1  ZINC000653668607    0.1100
     24 N24        -2.6594    2.3120   56.8114 N.am    1  ZINC000653668607   -0.7400
     25 C25        -3.9383    2.0044   56.5483 C.2     1  ZINC000653668607    0.7100
     26 O26        -4.2940    0.8466   56.6541 O.2     1  ZINC000653668607   -0.5800
     27 C27        -6.8638    1.8188   56.8725 C.ar    1  ZINC000653668607   -0.1300
     28 C28       -11.0555   -0.4958   58.9617 C.ar    1  ZINC000653668607   -0.0300
     29 C29       -11.7020   -0.1658   57.7787 C.ar    1  ZINC000653668607   -0.1500
     30 H30       -15.0604   -0.7452   56.6207 H       1  ZINC000653668607    0.0600
     31 H31       -14.2293    0.8289   56.6161 H       1  ZINC000653668607    0.0600
     32 H32       -14.7605    0.0985   55.0823 H       1  ZINC000653668607    0.1000
     33 H33       -13.1788   -3.1285   57.1111 H       1  ZINC000653668607    0.1300
     34 H34       -12.0221   -3.7154   59.1967 H       1  ZINC000653668607    0.1300
     35 H35       -11.1524   -2.8181   61.3238 H       1  ZINC000653668607    0.0800
     36 H36        -9.5902   -2.7927   60.4767 H       1  ZINC000653668607    0.0800
     37 H37       -10.9286   -0.4849   61.9470 H       1  ZINC000653668607    0.0700
     38 H38        -9.4083   -1.3096   62.3786 H       1  ZINC000653668607    0.0800
     39 H39        -8.8101    0.7522   61.2370 H       1  ZINC000653668607    0.0700
     40 H40        -8.4967   -0.5882   60.1044 H       1  ZINC000653668607    0.0800
     41 H41        -8.9522   -0.2615   57.5155 H       1  ZINC000653668607    0.4100
     42 H42        -9.7840    1.4404   55.2083 H       1  ZINC000653668607    0.1400
     43 H43        -8.5284    2.7039   53.5114 H       1  ZINC000653668607    0.1300
     44 H44        -6.2113    3.4001   53.9548 H       1  ZINC000653668607    0.1200
     45 H45        -4.1526    4.5101   54.9772 H       1  ZINC000653668607    0.0700
     46 H46        -5.3281    4.9591   56.2378 H       1  ZINC000653668607    0.0900
     47 H47        -2.9810    5.6809   56.7897 H       1  ZINC000653668607    0.1000
     48 H48        -3.6558    4.5493   57.9914 H       1  ZINC000653668607    0.0800
     49 H49        -1.7812    3.8463   55.6837 H       1  ZINC000653668607    0.0700
     50 H50        -1.3705    3.8513   57.4168 H       1  ZINC000653668607    0.0900
     51 H51        -2.0501    1.6110   57.0911 H       1  ZINC000653668607    0.4200
     52 H52        -6.3967    1.5693   57.8137 H       1  ZINC000653668607    0.1300
     53 H53       -11.6096    0.8328   57.3781 H       1  ZINC000653668607    0.1200
@<TRIPOS>BOND
     1     1     2    1
     2     1    30    1
     3     1    31    1
     4     1    32    1
     5     2     3    1
     6     3    29   ar
     7     3     4   ar
     8     4     5   ar
     9     4    33    1
    10     5     6   ar
    11     5    34    1
    12     6    28   ar
    13     6     7    1
    14     7     8    1
    15     7    35    1
    16     7    36    1
    17     8     9    1
    18     8    37    1
    19     8    38    1
    20     9    10    1
    21     9    39    1
    22     9    40    1
    23    10    11    1
    24    10    12    1
    25    10    28    1
    26    12    13    2
    27    12    14   am
    28    14    15    1
    29    14    41    1
    30    15    27   ar
    31    15    16   ar
    32    16    17   ar
    33    16    42    1
    34    17    18   ar
    35    17    43    1
    36    18    19   ar
    37    18    44    1
    38    19    20    1
    39    19    27   ar
    40    20    25   am
    41    20    21    1
    42    21    22    1
    43    21    45    1
    44    21    46    1
    45    22    23    1
    46    22    47    1
    47    22    48    1
    48    23    24    1
    49    23    49    1
    50    23    50    1
    51    24    25   am
    52    24    51    1
    53    25    26    2
    54    27    52    1
    55    28    29   ar
    56    29    53    1
@<TRIPOS>SUBSTRUCTURE
     1 ZINC000653668607        1 TEMP              0 ****  ****    0 ROOT


##########                                Name:    ZINC001282645012
##########                DOCK_Rotatable_Bonds:                   9
##########                         Heavy_Atoms:                  27
##########                    Molecular_Weight:             372.511
##########                DOCK_Rotatable_Bonds:                   9
##########                       Formal_Charge:          -0.0200004
##########                     HBond_Acceptors:                   6
##########                        HBond_Donors:                   1
##########                         Heavy_Atoms:                  27
##########                          Grid_Score:          -27.410883
##########                     Grid_vdw_energy:          -27.118877
##########                      Grid_es_energy:           -0.292005
##########           Internal_energy_repulsive:           40.892822

@<TRIPOS>MOLECULE
ZINC001282645012
 59 61 1 0 0
SMALL
USER_CHARGES


@<TRIPOS>ATOM
      1 C1         -3.1989   -0.0605   49.0167 C.2     1  ZINC001282645012   -0.1900
      2 C2         -2.5424    0.8616   48.3573 C.2     1  ZINC001282645012   -0.1300
      3 C3         -1.5959    0.4681   47.2526 C.3     1  ZINC001282645012   -0.0500
      4 C4         -0.5116   -0.4536   47.8142 C.3     1  ZINC001282645012   -0.1500
      5 C5         -2.3699   -0.2647   46.1548 C.3     1  ZINC001282645012   -0.1400
      6 C6         -0.9553    1.7043   46.6758 C.2     1  ZINC001282645012    0.5500
      7 O7         -0.9788    1.8972   45.4788 O.2     1  ZINC001282645012   -0.5300
      8 N8         -0.3562    2.5954   47.4904 N.am    1  ZINC001282645012   -0.6300
      9 C9          0.3468    3.8877   47.1853 C.3     1  ZINC001282645012    0.1200
     10 H10         0.3949    4.1656   46.1326 H       1  ZINC001282645012    0.1300
     11 C11         1.7207    3.6520   47.8821 C.3     1  ZINC001282645012   -0.1300
     12 C12         1.3580    2.7764   49.1067 C.3     1  ZINC001282645012   -0.1300
     13 C13        -0.1915    2.6055   48.9838 C.3     1  ZINC001282645012    0.1200
     14 H14        -0.6141    1.7520   49.5139 H       1  ZINC001282645012    0.1200
     15 C15        -0.7840    3.9952   49.3664 C.3     1  ZINC001282645012    0.1300
     16 H16        -1.8653    3.9315   49.4876 H       1  ZINC001282645012    0.1000
     17 N17        -0.1582    4.5038   50.5895 N.am    1  ZINC001282645012   -0.7100
     18 C18        -0.4228    3.9197   51.7749 C.2     1  ZINC001282645012    0.5100
     19 O19        -1.1800    2.9739   51.8293 O.2     1  ZINC001282645012   -0.5100
     20 C20         0.2223    4.4418   53.0329 C.3     1  ZINC001282645012    0.1200
     21 H21         1.3001    4.5122   52.8862 H       1  ZINC001282645012    0.1300
     22 C22        -0.3400    5.8272   53.3572 C.3     1  ZINC001282645012   -0.1100
     23 C23         0.7989    6.8487   53.3741 C.3     1  ZINC001282645012   -0.1000
     24 C24         1.8259    6.4501   54.4358 C.3     1  ZINC001282645012   -0.1500
     25 C25         1.4726    6.8841   52.0009 C.3     1  ZINC001282645012   -0.1500
     26 N26        -0.0607    3.5278   54.1423 N.pl3   1  ZINC001282645012   -0.4500
     27 C27        -1.2537    3.3933   54.7997 C.2     1  ZINC001282645012   -0.0600
     28 C28        -1.0747    2.4486   55.7426 C.2     1  ZINC001282645012   -0.0200
     29 N29         0.1931    2.0181   55.6632 N.2     1  ZINC001282645012   -0.4900
     30 C30         0.8051    2.6566   54.7035 C.2     1  ZINC001282645012    0.1900
     31 C31        -0.4307    4.8753   48.1068 C.3     1  ZINC001282645012   -0.1400
     32 H32        -3.0619   -1.1027   48.7686 H       1  ZINC001282645012    0.1000
     33 H33        -3.8738    0.2212   49.8114 H       1  ZINC001282645012    0.1000
     34 H34        -2.6793    1.9037   48.6054 H       1  ZINC001282645012    0.1100
     35 H35        -0.9749   -1.3477   48.2313 H       1  ZINC001282645012    0.0700
     36 H36         0.1730   -0.7383   47.0151 H       1  ZINC001282645012    0.0700
     37 H37         0.0398    0.0683   48.5962 H       1  ZINC001282645012    0.0600
     38 H38        -3.1424    0.3920   45.7547 H       1  ZINC001282645012    0.0600
     39 H39        -1.6853   -0.5493   45.3558 H       1  ZINC001282645012    0.0700
     40 H40        -2.8333   -1.1587   46.5719 H       1  ZINC001282645012    0.0700
     41 H41         2.4019    3.1200   47.2179 H       1  ZINC001282645012    0.0800
     42 H42         2.1562    4.5985   48.2024 H       1  ZINC001282645012    0.0800
     43 H43         1.8592    1.8102   49.0498 H       1  ZINC001282645012    0.0700
     44 H44         1.6136    3.2886   50.0342 H       1  ZINC001282645012    0.0800
     45 H45         0.4465    5.2610   50.5461 H       1  ZINC001282645012    0.4000
     46 H46        -1.0702    6.1096   52.5989 H       1  ZINC001282645012    0.0900
     47 H47        -0.8218    5.8040   54.3347 H       1  ZINC001282645012    0.0800
     48 H48         0.3987    7.8352   53.6080 H       1  ZINC001282645012    0.0700
     49 H49         2.2261    5.4635   54.2019 H       1  ZINC001282645012    0.0600
     50 H50         2.6372    7.1779   54.4478 H       1  ZINC001282645012    0.0600
     51 H51         1.3459    6.4248   55.4141 H       1  ZINC001282645012    0.0500
     52 H52         0.7639    7.2503   51.2579 H       1  ZINC001282645012    0.0600
     53 H53         2.3365    7.5477   52.0369 H       1  ZINC001282645012    0.0600
     54 H54         1.7971    5.8796   51.7293 H       1  ZINC001282645012    0.0600
     55 H55        -2.1637    3.9398   54.6006 H       1  ZINC001282645012    0.1700
     56 H56        -1.8210    2.0989   56.4405 H       1  ZINC001282645012    0.1700
     57 H57         1.8351    2.5162   54.4110 H       1  ZINC001282645012    0.2000
     58 H58         0.2218    5.7022   48.3869 H       1  ZINC001282645012    0.0900
     59 H59        -1.3384    5.2455   47.6303 H       1  ZINC001282645012    0.0900
@<TRIPOS>BOND
     1     1     2    2
     2     1    32    1
     3     1    33    1
     4     2     3    1
     5     2    34    1
     6     3     4    1
     7     3     5    1
     8     3     6    1
     9     4    35    1
    10     4    36    1
    11     4    37    1
    12     5    38    1
    13     5    39    1
    14     5    40    1
    15     6     7    2
    16     6     8   am
    17     8    13    1
    18     8     9    1
    19     9    10    1
    20     9    31    1
    21     9    11    1
    22    11    12    1
    23    11    41    1
    24    11    42    1
    25    12    13    1
    26    12    43    1
    27    12    44    1
    28    13    14    1
    29    13    15    1
    30    15    16    1
    31    15    17    1
    32    15    31    1
    33    17    18   am
    34    17    45    1
    35    18    19    2
    36    18    20    1
    37    20    21    1
    38    20    22    1
    39    20    26    1
    40    22    23    1
    41    22    46    1
    42    22    47    1
    43    23    24    1
    44    23    25    1
    45    23    48    1
    46    24    49    1
    47    24    50    1
    48    24    51    1
    49    25    52    1
    50    25    53    1
    51    25    54    1
    52    26    30    1
    53    26    27    1
    54    27    28    2
    55    27    55    1
    56    28    29    1
    57    28    56    1
    58    29    30    2
    59    30    57    1
    60    31    58    1
    61    31    59    1
@<TRIPOS>SUBSTRUCTURE
     1 ZINC001282645012        1 TEMP              0 ****  ****    0 ROOT


##########                                Name:    ZINC001193456967
##########                DOCK_Rotatable_Bonds:                   3
##########                         Heavy_Atoms:                  27
##########                    Molecular_Weight:             392.451
##########                DOCK_Rotatable_Bonds:                   3
##########                       Formal_Charge:           0.0300002
##########                     HBond_Acceptors:                   8
##########                        HBond_Donors:                   0
##########                         Heavy_Atoms:                  27
##########                          Grid_Score:          -27.369715
##########                     Grid_vdw_energy:          -27.900099
##########                      Grid_es_energy:            0.530385
##########           Internal_energy_repulsive:           36.537098

@<TRIPOS>MOLECULE
ZINC001193456967
 48 50 1 0 0
SMALL
USER_CHARGES


@<TRIPOS>ATOM
      1 C1        -10.4985   -1.6409   51.7983 C.3     1  ZINC001193456967   -0.1400
      2 C2        -11.3143   -1.9129   53.0357 C.ar    1  ZINC001193456967    0.0300
      3 C3        -10.7990   -2.7075   54.0425 C.ar    1  ZINC001193456967   -0.1400
      4 C4        -11.5476   -2.9570   55.1777 C.ar    1  ZINC001193456967    0.0300
      5 C5        -12.8110   -2.4116   55.3062 C.ar    1  ZINC001193456967   -0.6900
      6 S6        -13.7653   -2.7301   56.7527 S.o2    1  ZINC001193456967    2.7100
      7 O7        -15.1216   -2.4991   56.3977 O.2     1  ZINC001193456967   -0.9300
      8 O8        -13.2987   -3.9656   57.2772 O.2     1  ZINC001193456967   -0.9400
      9 N9        -13.3693   -1.5701   57.8664 N.am    1  ZINC001193456967   -1.0000
     10 C10       -13.5364   -0.1161   57.6892 C.3     1  ZINC001193456967    0.1100
     11 C11       -12.5057    0.5219   58.6537 C.3     1  ZINC001193456967   -0.1200
     12 C12       -12.5704   -0.4468   59.8639 C.3     1  ZINC001193456967   -0.0500
     13 H13       -13.4067   -0.1943   60.5157 H       1  ZINC001193456967    0.1000
     14 C14       -11.2739   -0.4278   60.6319 C.ar    1  ZINC001193456967   -0.0800
     15 C15       -10.0727   -0.3156   59.9567 C.ar    1  ZINC001193456967   -0.0800
     16 C16        -8.8832   -0.2981   60.6599 C.ar    1  ZINC001193456967   -0.1500
     17 C17        -8.8947   -0.3926   62.0412 C.ar    1  ZINC001193456967    0.1000
     18 F18        -7.7324   -0.3751   62.7297 F       1  ZINC001193456967   -0.1400
     19 C19       -10.0983   -0.5045   62.7164 C.ar    1  ZINC001193456967   -0.1500
     20 C20       -11.2869   -0.5169   62.0114 C.ar    1  ZINC001193456967   -0.0800
     21 C21       -12.7989   -1.8203   59.1982 C.3     1  ZINC001193456967    0.1900
     22 C22       -13.7692   -2.6515   60.0399 C.3     1  ZINC001193456967   -0.1800
     23 C23       -11.4659   -2.5576   59.0555 C.3     1  ZINC001193456967   -0.1800
     24 C24       -13.3260   -1.6157   54.2997 C.ar    1  ZINC001193456967    0.0400
     25 C25       -12.5761   -1.3631   53.1665 C.ar    1  ZINC001193456967   -0.0600
     26 N26       -13.1274   -0.5110   52.0890 N.pl3   1  ZINC001193456967    0.0200
     27 O27       -12.3979    0.2545   51.4845 O.2     1  ZINC001193456967   -0.1400
     28 O28       -14.3105   -0.5753   51.8069 O.2     1  ZINC001193456967   -0.1500
     29 H29        -9.9703   -0.6942   51.9120 H       1  ZINC001193456967    0.1100
     30 H30        -9.7764   -2.4448   51.6552 H       1  ZINC001193456967    0.0900
     31 H31       -11.1584   -1.5869   50.9325 H       1  ZINC001193456967    0.0800
     32 H32        -9.8117   -3.1336   53.9421 H       1  ZINC001193456967    0.1600
     33 H33       -11.1452   -3.5784   55.9641 H       1  ZINC001193456967    0.1600
     34 H34       -13.3190    0.1680   56.6596 H       1  ZINC001193456967    0.0900
     35 H35       -14.5479    0.1855   57.9613 H       1  ZINC001193456967    0.0700
     36 H36       -11.5093    0.5290   58.2118 H       1  ZINC001193456967    0.0900
     37 H37       -12.8109    1.5279   58.9417 H       1  ZINC001193456967    0.0900
     38 H38       -10.0640   -0.2420   58.8793 H       1  ZINC001193456967    0.1400
     39 H39        -7.9449   -0.2111   60.1322 H       1  ZINC001193456967    0.1400
     40 H40       -10.1084   -0.5785   63.7938 H       1  ZINC001193456967    0.1400
     41 H41       -12.2259   -0.6038   62.5378 H       1  ZINC001193456967    0.1300
     42 H42       -14.7217   -2.1276   60.1197 H       1  ZINC001193456967    0.0700
     43 H43       -13.9257   -3.6195   59.5639 H       1  ZINC001193456967    0.0600
     44 H44       -13.3513   -2.7996   61.0356 H       1  ZINC001193456967    0.0800
     45 H45       -10.9738   -2.6098   60.0268 H       1  ZINC001193456967    0.0800
     46 H46       -11.6466   -3.5666   58.6851 H       1  ZINC001193456967    0.0900
     47 H47       -10.8276   -2.0216   58.3532 H       1  ZINC001193456967    0.0700
     48 H48       -14.3131   -1.1892   54.4003 H       1  ZINC001193456967    0.1600
@<TRIPOS>BOND
     1     1     2    1
     2     1    29    1
     3     1    30    1
     4     1    31    1
     5     2    25   ar
     6     2     3   ar
     7     3     4   ar
     8     3    32    1
     9     4     5   ar
    10     4    33    1
    11     5     6    1
    12     5    24   ar
    13     6     7    2
    14     6     8    2
    15     6     9   am
    16     9    21    1
    17     9    10    1
    18    10    11    1
    19    10    34    1
    20    10    35    1
    21    11    12    1
    22    11    36    1
    23    11    37    1
    24    12    13    1
    25    12    14    1
    26    12    21    1
    27    14    20   ar
    28    14    15   ar
    29    15    16   ar
    30    15    38    1
    31    16    17   ar
    32    16    39    1
    33    17    18    1
    34    17    19   ar
    35    19    20   ar
    36    19    40    1
    37    20    41    1
    38    21    22    1
    39    21    23    1
    40    22    42    1
    41    22    43    1
    42    22    44    1
    43    23    45    1
    44    23    46    1
    45    23    47    1
    46    24    25   ar
    47    24    48    1
    48    25    26    1
    49    26    27    2
    50    26    28    2
@<TRIPOS>SUBSTRUCTURE
     1 ZINC001193456967        1 TEMP              0 ****  ****    0 ROOT


##########                                Name:    ZINC000477669194
##########                DOCK_Rotatable_Bonds:                   6
##########                         Heavy_Atoms:                  26
##########                    Molecular_Weight:             387.483
##########                DOCK_Rotatable_Bonds:                   6
##########                       Formal_Charge:         4.47035e-07
##########                     HBond_Acceptors:                   8
##########                        HBond_Donors:                   2
##########                         Heavy_Atoms:                  26
##########                          Grid_Score:          -27.365175
##########                     Grid_vdw_energy:          -25.999733
##########                      Grid_es_energy:           -1.365442
##########           Internal_energy_repulsive:            8.174091

@<TRIPOS>MOLECULE
ZINC000477669194
 43 45 1 0 0
SMALL
USER_CHARGES


@<TRIPOS>ATOM
      1 C1         -8.2075   -1.8105   61.0231 C.3     1  ZINC000477669194   -0.0800
      2 C2         -9.7071   -1.7939   61.1713 C.2     1  ZINC000477669194    0.0500
      3 N3        -10.5409   -2.0863   60.2340 N.2     1  ZINC000477669194   -0.4900
      4 C4        -11.8308   -2.0225   60.5313 C.2     1  ZINC000477669194    0.1200
      5 C5        -12.9009   -2.3320   59.5522 C.ar    1  ZINC000477669194   -0.0600
      6 C6        -13.9953   -3.1040   59.9330 C.ar    1  ZINC000477669194   -0.0800
      7 C7        -14.9891   -3.3896   59.0178 C.ar    1  ZINC000477669194   -0.1400
      8 C8        -14.9025   -2.9117   57.7224 C.ar    1  ZINC000477669194   -0.0900
      9 C9        -13.8206   -2.1447   57.3325 C.ar    1  ZINC000477669194   -0.1300
     10 C10       -12.8182   -1.8447   58.2425 C.ar    1  ZINC000477669194    0.1800
     11 N11       -11.7238   -1.0689   57.8503 N.am    1  ZINC000477669194   -0.6500
     12 C12       -11.9094    0.2046   57.4504 C.2     1  ZINC000477669194    0.5600
     13 O13       -13.0290    0.6789   57.4309 O.2     1  ZINC000477669194   -0.5200
     14 C14       -10.7545    1.0234   57.0365 C.ar    1  ZINC000477669194   -0.1500
     15 C15       -10.7328    1.6139   55.7694 C.ar    1  ZINC000477669194   -0.0600
     16 C16        -9.6541    2.3776   55.3863 C.ar    1  ZINC000477669194   -0.1400
     17 C17        -8.5852    2.5626   56.2590 C.ar    1  ZINC000477669194    0.1700
     18 N18        -7.4967    3.3349   55.8688 N.am    1  ZINC000477669194   -1.0600
     19 S19        -6.2582    2.6468   55.0115 S.o2    1  ZINC000477669194    2.6100
     20 C20        -5.0902    4.0065   54.7330 C.3     1  ZINC000477669194   -0.6700
     21 O21        -5.7047    1.6887   55.9032 O.2     1  ZINC000477669194   -0.9400
     22 O22        -6.8591    2.2469   53.7874 O.2     1  ZINC000477669194   -0.9500
     23 C23        -8.6041    1.9763   57.5215 C.ar    1  ZINC000477669194   -0.1600
     24 C24        -9.6820    1.2155   57.9124 C.ar    1  ZINC000477669194   -0.0300
     25 C25       -12.0845   -1.6517   61.8028 C.2     1  ZINC000477669194   -0.2600
     26 S26       -10.5396   -1.3915   62.6087 S.3     1  ZINC000477669194    0.1500
     27 H27        -7.7457   -1.5275   61.9690 H       1  ZINC000477669194    0.0800
     28 H28        -7.8810   -2.8125   60.7447 H       1  ZINC000477669194    0.0900
     29 H29        -7.9111   -1.1035   60.2482 H       1  ZINC000477669194    0.0900
     30 H30       -14.0667   -3.4794   60.9431 H       1  ZINC000477669194    0.1300
     31 H31       -15.8373   -3.9888   59.3144 H       1  ZINC000477669194    0.1300
     32 H32       -15.6836   -3.1392   57.0122 H       1  ZINC000477669194    0.1300
     33 H33       -13.7583   -1.7751   56.3197 H       1  ZINC000477669194    0.1500
     34 H34       -10.8308   -1.4472   57.8658 H       1  ZINC000477669194    0.4200
     35 H35       -11.5615    1.4705   55.0919 H       1  ZINC000477669194    0.1300
     36 H36        -9.6365    2.8337   54.4075 H       1  ZINC000477669194    0.1400
     37 H37        -7.4628    4.2766   56.0987 H       1  ZINC000477669194    0.4300
     38 H38        -4.6847    4.3387   55.6886 H       1  ZINC000477669194    0.1300
     39 H39        -4.2775    3.6621   54.0934 H       1  ZINC000477669194    0.1400
     40 H40        -5.6066    4.8357   54.2494 H       1  ZINC000477669194    0.1300
     41 H41        -7.7735    2.1220   58.1964 H       1  ZINC000477669194    0.1700
     42 H42        -9.6961    0.7612   58.8922 H       1  ZINC000477669194    0.1500
     43 H43       -13.0613   -1.5381   62.2490 H       1  ZINC000477669194    0.1800
@<TRIPOS>BOND
     1     1     2    1
     2     1    27    1
     3     1    28    1
     4     1    29    1
     5     2    26    1
     6     2     3    2
     7     3     4    1
     8     4     5    1
     9     4    25    2
    10     5    10   ar
    11     5     6   ar
    12     6     7   ar
    13     6    30    1
    14     7     8   ar
    15     7    31    1
    16     8     9   ar
    17     8    32    1
    18     9    10   ar
    19     9    33    1
    20    10    11    1
    21    11    12   am
    22    11    34    1
    23    12    13    2
    24    12    14    1
    25    14    24   ar
    26    14    15   ar
    27    15    16   ar
    28    15    35    1
    29    16    17   ar
    30    16    36    1
    31    17    18    1
    32    17    23   ar
    33    18    19   am
    34    18    37    1
    35    19    20    1
    36    19    21    2
    37    19    22    2
    38    20    38    1
    39    20    39    1
    40    20    40    1
    41    23    24   ar
    42    23    41    1
    43    24    42    1
    44    25    26    1
    45    25    43    1
@<TRIPOS>SUBSTRUCTURE
     1 ZINC000477669194        1 TEMP              0 ****  ****    0 ROOT


##########                                Name:    ZINC000371438955
##########                DOCK_Rotatable_Bonds:                   4
##########                         Heavy_Atoms:                  25
##########                    Molecular_Weight:             387.499
##########                DOCK_Rotatable_Bonds:                   4
##########                       Formal_Charge:          -0.0299995
##########                     HBond_Acceptors:                   9
##########                        HBond_Donors:                   1
##########                         Heavy_Atoms:                  25
##########                          Grid_Score:          -27.348364
##########                     Grid_vdw_energy:          -23.630959
##########                      Grid_es_energy:           -3.717406
##########           Internal_energy_repulsive:           21.136909

@<TRIPOS>MOLECULE
ZINC000371438955
 47 49 1 0 0
SMALL
USER_CHARGES


@<TRIPOS>ATOM
      1 C1         -3.4712    4.1566   53.6768 C.3     1  ZINC000371438955   -0.6800
      2 S2         -2.2963    3.5694   52.4257 S.o2    1  ZINC000371438955    2.6000
      3 O3         -1.3533    2.6790   53.0064 O.2     1  ZINC000371438955   -0.9500
      4 O4         -2.9745    3.2357   51.2224 O.2     1  ZINC000371438955   -0.9500
      5 N5         -1.4054    4.9094   52.0343 N.am    1  ZINC000371438955   -0.9900
      6 C6         -2.0773    6.0566   51.4951 C.3     1  ZINC000371438955    0.1300
      7 C7         -2.1878    5.8694   49.9726 C.3     1  ZINC000371438955   -0.1700
      8 C8         -0.9202    6.1736   49.2904 C.3     1  ZINC000371438955    0.1400
      9 N9          0.1650    5.3077   49.8092 N.am    1  ZINC000371438955   -0.6200
     10 C10         0.5803    4.2454   49.0911 C.2     1  ZINC000371438955    0.7100
     11 O11         1.4705    3.5347   49.5161 O.2     1  ZINC000371438955   -0.5800
     12 N12         0.0088    3.9711   47.9017 N.am    1  ZINC000371438955   -0.7400
     13 C13         0.4601    2.8164   47.1211 C.3     1  ZINC000371438955    0.2000
     14 H14         1.3388    2.3908   47.6056 H       1  ZINC000371438955    0.1100
     15 C15         0.8527    3.2916   45.7330 C.3     1  ZINC000371438955   -0.1300
     16 C16         1.3654    2.0934   44.9218 C.3     1  ZINC000371438955   -0.1100
     17 S17        -0.0731    1.0648   44.5083 S.3     1  ZINC000371438955   -0.1000
     18 C18        -0.9288    0.9616   46.0481 C.ar    1  ZINC000371438955   -0.1100
     19 C19        -1.9422    0.0061   46.1658 C.ar    1  ZINC000371438955    0.1100
     20 F20        -2.2248   -0.8024   45.1210 F       1  ZINC000371438955   -0.1300
     21 C21        -2.6560   -0.1190   47.3396 C.ar    1  ZINC000371438955   -0.1300
     22 C22        -2.3649    0.7131   48.4055 C.ar    1  ZINC000371438955   -0.1000
     23 C23        -1.3645    1.6536   48.2926 C.ar    1  ZINC000371438955   -0.1000
     24 C24        -0.6305    1.7860   47.1133 C.ar    1  ZINC000371438955   -0.0800
     25 C25         0.7748    5.5998   51.0763 C.3     1  ZINC000371438955    0.1000
     26 C26         0.0659    4.8870   52.2591 C.3     1  ZINC000371438955    0.0900
     27 H27        -2.9237    4.5462   54.5350 H       1  ZINC000371438955    0.1300
     28 H28        -4.0902    4.9467   53.2516 H       1  ZINC000371438955    0.1300
     29 H29        -4.1060    3.3299   53.9956 H       1  ZINC000371438955    0.1300
     30 H30        -3.0736    6.1382   51.9297 H       1  ZINC000371438955    0.0800
     31 H31        -1.5037    6.9569   51.7151 H       1  ZINC000371438955    0.0800
     32 H32        -2.4660    4.8370   49.7611 H       1  ZINC000371438955    0.0800
     33 H33        -2.9649    6.5306   49.5892 H       1  ZINC000371438955    0.0900
     34 H34        -1.0368    6.0036   48.2200 H       1  ZINC000371438955    0.0900
     35 H35        -0.6605    7.2185   49.4607 H       1  ZINC000371438955    0.0700
     36 H36        -0.7014    4.5380   47.5626 H       1  ZINC000371438955    0.4000
     37 H37        -0.0159    3.7237   45.2361 H       1  ZINC000371438955    0.0900
     38 H38         1.6397    4.0415   45.8131 H       1  ZINC000371438955    0.1000
     39 H39         1.8464    2.4426   44.0081 H       1  ZINC000371438955    0.1200
     40 H40         2.0737    1.5178   45.5179 H       1  ZINC000371438955    0.1000
     41 H41        -3.4363   -0.8606   47.4255 H       1  ZINC000371438955    0.1400
     42 H42        -2.9222    0.6258   49.3264 H       1  ZINC000371438955    0.1300
     43 H43        -1.1460    2.2998   49.1300 H       1  ZINC000371438955    0.1400
     44 H44         1.8173    5.2831   51.0473 H       1  ZINC000371438955    0.0800
     45 H45         0.7396    6.6760   51.2448 H       1  ZINC000371438955    0.0900
     46 H46         0.3052    5.4018   53.1896 H       1  ZINC000371438955    0.0800
     47 H47         0.4066    3.8533   52.3173 H       1  ZINC000371438955    0.1000
@<TRIPOS>BOND
     1     1     2    1
     2     1    27    1
     3     1    28    1
     4     1    29    1
     5     2     3    2
     6     2     4    2
     7     2     5   am
     8     5    26    1
     9     5     6    1
    10     6     7    1
    11     6    30    1
    12     6    31    1
    13     7     8    1
    14     7    32    1
    15     7    33    1
    16     8     9    1
    17     8    34    1
    18     8    35    1
    19     9    10   am
    20     9    25    1
    21    10    11    2
    22    10    12   am
    23    12    13    1
    24    12    36    1
    25    13    14    1
    26    13    24    1
    27    13    15    1
    28    15    16    1
    29    15    37    1
    30    15    38    1
    31    16    17    1
    32    16    39    1
    33    16    40    1
    34    17    18    1
    35    18    24   ar
    36    18    19   ar
    37    19    20    1
    38    19    21   ar
    39    21    22   ar
    40    21    41    1
    41    22    23   ar
    42    22    42    1
    43    23    24   ar
    44    23    43    1
    45    25    26    1
    46    25    44    1
    47    25    45    1
    48    26    46    1
    49    26    47    1
@<TRIPOS>SUBSTRUCTURE
     1 ZINC000371438955        1 TEMP              0 ****  ****    0 ROOT


##########                                Name:    ZINC000186105981
##########                DOCK_Rotatable_Bonds:                   6
##########                         Heavy_Atoms:                  26
##########                    Molecular_Weight:             396.873
##########                DOCK_Rotatable_Bonds:                   6
##########                       Formal_Charge:          -0.0400003
##########                     HBond_Acceptors:                   9
##########                        HBond_Donors:                   1
##########                         Heavy_Atoms:                  26
##########                          Grid_Score:          -27.327517
##########                     Grid_vdw_energy:          -25.119354
##########                      Grid_es_energy:           -2.208162
##########           Internal_energy_repulsive:           14.372231

@<TRIPOS>MOLECULE
ZINC000186105981
 44 46 1 0 0
SMALL
USER_CHARGES


@<TRIPOS>ATOM
      1 C1         -4.3180    4.9971   56.4131 C.3     1  ZINC000186105981   -0.1400
      2 C2         -3.8360    4.1524   55.2319 C.3     1  ZINC000186105981   -0.1100
      3 C3         -4.8496    4.2474   54.0898 C.3     1  ZINC000186105981   -0.1600
      4 C4         -2.4787    4.6718   54.7537 C.3     1  ZINC000186105981    0.1600
      5 H5         -2.5548    5.7362   54.5315 H       1  ZINC000186105981    0.1200
      6 C6         -2.0657    3.9273   53.5102 C.2     1  ZINC000186105981    0.4900
      7 O7         -1.5407    2.8378   53.6019 O.2     1  ZINC000186105981   -0.4300
      8 N8         -2.2795    4.4721   52.2962 N.am    1  ZINC000186105981   -0.6300
      9 C9         -1.8986    3.7856   51.1495 C.2     1  ZINC000186105981    0.2400
     10 N10        -0.6888    3.4088   50.8473 N.2     1  ZINC000186105981   -0.2600
     11 N11        -0.5210    2.7915   49.7605 N.2     1  ZINC000186105981   -0.2000
     12 C12        -1.5708    2.5752   49.0185 C.2     1  ZINC000186105981    0.0300
     13 C13        -1.5880    1.8737   47.7177 C.ar    1  ZINC000186105981   -0.0500
     14 C14        -2.2587    0.6549   47.5860 C.ar    1  ZINC000186105981    0.1300
     15 F15        -2.8942    0.1132   48.6481 F       1  ZINC000186105981   -0.1200
     16 C16        -2.2706    0.0052   46.3660 C.ar    1  ZINC000186105981   -0.1400
     17 C17        -1.6210    0.5590   45.2779 C.ar    1  ZINC000186105981   -0.0600
     18 C18        -0.9546    1.7653   45.4017 C.ar    1  ZINC000186105981   -0.1200
     19 C19        -0.9388    2.4287   46.6125 C.ar    1  ZINC000186105981    0.0200
     20 Cl20       -0.1024    3.9422   46.7645 Cl      1  ZINC000186105981   -0.0100
     21 S21        -2.9688    3.2624   49.8476 S.3     1  ZINC000186105981    0.1200
     22 N22        -1.4783    4.4623   55.8032 N.am    1  ZINC000186105981   -0.6100
     23 C23        -1.4309    3.2855   56.6790 C.3     1  ZINC000186105981    0.1000
     24 C24        -0.0135    3.2857   57.2932 C.3     1  ZINC000186105981   -0.1300
     25 C25         0.3624    4.7837   57.2184 C.3     1  ZINC000186105981   -0.1600
     26 C26        -0.4824    5.3203   56.0840 C.2     1  ZINC000186105981    0.5200
     27 O27        -0.2932    6.3748   55.5155 O.2     1  ZINC000186105981   -0.5000
     28 H28        -5.2850    4.6270   56.7537 H       1  ZINC000186105981    0.0600
     29 H29        -3.5959    4.9294   57.2267 H       1  ZINC000186105981    0.0600
     30 H30        -4.4164    6.0365   56.1002 H       1  ZINC000186105981    0.0600
     31 H31        -3.7376    3.1129   55.5448 H       1  ZINC000186105981    0.0900
     32 H32        -4.8793    5.2703   53.7143 H       1  ZINC000186105981    0.0600
     33 H33        -4.5548    3.5735   53.2853 H       1  ZINC000186105981    0.0600
     34 H34        -5.8370    3.9660   54.4558 H       1  ZINC000186105981    0.0700
     35 H35        -2.6993    5.3435   52.2228 H       1  ZINC000186105981    0.4200
     36 H36        -2.7882   -0.9369   46.2623 H       1  ZINC000186105981    0.1500
     37 H37        -1.6335    0.0472   44.3271 H       1  ZINC000186105981    0.1500
     38 H38        -0.4491    2.1914   44.5476 H       1  ZINC000186105981    0.1500
     39 H39        -2.1822    3.3693   57.4642 H       1  ZINC000186105981    0.0700
     40 H40        -1.5905    2.3768   56.0986 H       1  ZINC000186105981    0.0800
     41 H41        -0.0361    2.9403   58.3267 H       1  ZINC000186105981    0.0900
     42 H42         0.6702    2.6817   56.6965 H       1  ZINC000186105981    0.0800
     43 H43         0.1156    5.2861   58.1537 H       1  ZINC000186105981    0.1100
     44 H44         1.4218    4.9003   56.9896 H       1  ZINC000186105981    0.1000
@<TRIPOS>BOND
     1     1     2    1
     2     1    28    1
     3     1    29    1
     4     1    30    1
     5     2     3    1
     6     2     4    1
     7     2    31    1
     8     3    32    1
     9     3    33    1
    10     3    34    1
    11     4     5    1
    12     4     6    1
    13     4    22    1
    14     6     7    2
    15     6     8   am
    16     8     9    1
    17     8    35    1
    18     9    21    1
    19     9    10    2
    20    10    11    1
    21    11    12    2
    22    12    13    1
    23    12    21    1
    24    13    19   ar
    25    13    14   ar
    26    14    15    1
    27    14    16   ar
    28    16    17   ar
    29    16    36    1
    30    17    18   ar
    31    17    37    1
    32    18    19   ar
    33    18    38    1
    34    19    20    1
    35    22    26   am
    36    22    23    1
    37    23    24    1
    38    23    39    1
    39    23    40    1
    40    24    25    1
    41    24    41    1
    42    24    42    1
    43    25    26    1
    44    25    43    1
    45    25    44    1
    46    26    27    2
@<TRIPOS>SUBSTRUCTURE
     1 ZINC000186105981        1 TEMP              0 ****  ****    0 ROOT


##########                                Name:    ZINC001318556452
##########                DOCK_Rotatable_Bonds:                   4
##########                         Heavy_Atoms:                  26
##########                    Molecular_Weight:             368.456
##########                DOCK_Rotatable_Bonds:                   4
##########                       Formal_Charge:          -0.0200005
##########                     HBond_Acceptors:                   6
##########                        HBond_Donors:                   1
##########                         Heavy_Atoms:                  26
##########                          Grid_Score:          -27.314053
##########                     Grid_vdw_energy:          -25.886490
##########                      Grid_es_energy:           -1.427564
##########           Internal_energy_repulsive:           13.812469

@<TRIPOS>MOLECULE
ZINC001318556452
 46 48 1 0 0
SMALL
USER_CHARGES


@<TRIPOS>ATOM
      1 C1         -8.1246    1.6480   59.9237 C.3     1  ZINC001318556452   -0.1300
      2 C2         -8.7701    0.3901   60.4454 C.ar    1  ZINC001318556452   -0.1000
      3 C3         -8.8334    0.1584   61.8051 C.ar    1  ZINC001318556452   -0.0500
      4 C4         -8.2561    1.1641   62.7676 C.3     1  ZINC001318556452   -0.4100
      5 S5         -9.4641    2.4858   63.0579 S.o     1  ZINC001318556452    1.2500
      6 C6         -8.6017    3.5788   64.2206 C.3     1  ZINC001318556452   -0.4900
      7 O7        -10.6182    1.9433   63.6849 O.2     1  ZINC001318556452   -0.8400
      8 C8         -9.4263   -0.9954   62.2847 C.ar    1  ZINC001318556452   -0.1200
      9 C9         -9.9568   -1.9209   61.4050 C.ar    1  ZINC001318556452   -0.1000
     10 C10        -9.8960   -1.6958   60.0436 C.ar    1  ZINC001318556452   -0.1200
     11 C11        -9.3071   -0.5350   59.5588 C.ar    1  ZINC001318556452    0.1400
     12 N12        -9.2443   -0.3038   58.1816 N.am    1  ZINC001318556452   -0.6600
     13 C13       -10.3250    0.1654   57.5271 C.2     1  ZINC001318556452    0.5600
     14 O14       -11.3538    0.3876   58.1341 O.2     1  ZINC001318556452   -0.5000
     15 C15       -10.2584    0.4106   56.0664 C.2     1  ZINC001318556452   -0.0300
     16 C16        -9.9623    1.6519   55.5797 C.2     1  ZINC001318556452   -0.1600
     17 C17        -9.9035    1.8620   54.1352 C.2     1  ZINC001318556452    0.5300
     18 O18        -9.6395    2.9690   53.7003 O.2     1  ZINC001318556452   -0.5200
     19 N19       -10.1358    0.8523   53.2786 N.am    1  ZINC001318556452   -0.5200
     20 C20       -10.0663    1.1036   51.8371 C.3     1  ZINC001318556452    0.0600
     21 C21       -10.4378   -0.4150   53.7294 C.ar    1  ZINC001318556452    0.1800
     22 C22       -10.6751   -1.4472   52.8255 C.ar    1  ZINC001318556452   -0.1700
     23 C23       -10.9759   -2.7091   53.2897 C.ar    1  ZINC001318556452   -0.0600
     24 C24       -11.0450   -2.9634   54.6525 C.ar    1  ZINC001318556452   -0.1500
     25 C25       -10.8159   -1.9656   55.5572 C.ar    1  ZINC001318556452   -0.0600
     26 C26       -10.5035   -0.6790   55.1091 C.ar    1  ZINC001318556452   -0.1100
     27 H27        -8.8748    2.4345   59.8425 H       1  ZINC001318556452    0.0800
     28 H28        -7.3390    1.9647   60.6098 H       1  ZINC001318556452    0.0800
     29 H29        -7.6931    1.4547   58.9416 H       1  ZINC001318556452    0.0700
     30 H30        -8.0229    0.6713   63.7115 H       1  ZINC001318556452    0.1000
     31 H31        -7.3459    1.5901   62.3455 H       1  ZINC001318556452    0.1300
     32 H32        -7.6828    3.9445   63.7622 H       1  ZINC001318556452    0.1100
     33 H33        -9.2442    4.4233   64.4701 H       1  ZINC001318556452    0.1100
     34 H34        -8.3598    3.0256   65.1281 H       1  ZINC001318556452    0.0800
     35 H35        -9.4749   -1.1740   63.3487 H       1  ZINC001318556452    0.1200
     36 H36       -10.4189   -2.8210   61.7828 H       1  ZINC001318556452    0.1300
     37 H37       -10.3102   -2.4193   59.3570 H       1  ZINC001318556452    0.1500
     38 H38        -8.4229   -0.4811   57.6970 H       1  ZINC001318556452    0.4100
     39 H39        -9.7735    2.4715   56.2572 H       1  ZINC001318556452    0.1600
     40 H40        -9.8179    2.1504   51.6623 H       1  ZINC001318556452    0.1000
     41 H41        -9.2985    0.4692   51.3942 H       1  ZINC001318556452    0.0800
     42 H42       -11.0308    0.8782   51.3820 H       1  ZINC001318556452    0.0800
     43 H43       -10.6238   -1.2591   51.7632 H       1  ZINC001318556452    0.1400
     44 H44       -11.1599   -3.5080   52.5866 H       1  ZINC001318556452    0.1300
     45 H45       -11.2824   -3.9579   55.0005 H       1  ZINC001318556452    0.1300
     46 H46       -10.8716   -2.1715   56.6160 H       1  ZINC001318556452    0.1700
@<TRIPOS>BOND
     1     1     2    1
     2     1    27    1
     3     1    28    1
     4     1    29    1
     5     2    11   ar
     6     2     3   ar
     7     3     4    1
     8     3     8   ar
     9     4     5    1
    10     4    30    1
    11     4    31    1
    12     5     6    1
    13     5     7    2
    14     6    32    1
    15     6    33    1
    16     6    34    1
    17     8     9   ar
    18     8    35    1
    19     9    10   ar
    20     9    36    1
    21    10    11   ar
    22    10    37    1
    23    11    12    1
    24    12    13   am
    25    12    38    1
    26    13    14    2
    27    13    15    1
    28    15    26    1
    29    15    16    2
    30    16    17    1
    31    16    39    1
    32    17    18    2
    33    17    19   am
    34    19    20    1
    35    19    21    1
    36    20    40    1
    37    20    41    1
    38    20    42    1
    39    21    26   ar
    40    21    22   ar
    41    22    23   ar
    42    22    43    1
    43    23    24   ar
    44    23    44    1
    45    24    25   ar
    46    24    45    1
    47    25    26   ar
    48    25    46    1
@<TRIPOS>SUBSTRUCTURE
     1 ZINC001318556452        1 TEMP              0 ****  ****    0 ROOT


##########                                Name:    ZINC000482910431
##########                DOCK_Rotatable_Bonds:                   7
##########                         Heavy_Atoms:                  29
##########                    Molecular_Weight:             414.867
##########                DOCK_Rotatable_Bonds:                   7
##########                       Formal_Charge:          -0.0300001
##########                     HBond_Acceptors:                   8
##########                        HBond_Donors:                   2
##########                         Heavy_Atoms:                  29
##########                          Grid_Score:          -27.260952
##########                     Grid_vdw_energy:          -25.063601
##########                      Grid_es_energy:           -2.197352
##########           Internal_energy_repulsive:           18.710052

@<TRIPOS>MOLECULE
ZINC000482910431
 49 51 1 0 0
SMALL
USER_CHARGES


@<TRIPOS>ATOM
      1 C1          2.3584    0.3344   59.5995 C.3     1  ZINC000482910431   -0.1500
      2 C2          1.0815    1.0038   60.1118 C.3     1  ZINC000482910431    0.0800
      3 C3          0.0512   -0.0695   60.4691 C.3     1  ZINC000482910431   -0.1400
      4 C4          1.3924    1.8030   61.3081 C.1     1  ZINC000482910431    0.2100
      5 N5          1.6325    2.4197   62.2315 N.1     1  ZINC000482910431   -0.4300
      6 C6          0.5202    1.9018   59.0398 C.ar    1  ZINC000482910431   -0.1000
      7 C7         -0.1892    3.0356   59.3912 C.ar    1  ZINC000482910431   -0.0900
      8 C8         -0.7046    3.8610   58.4111 C.ar    1  ZINC000482910431   -0.1200
      9 C9         -0.5097    3.5514   57.0715 C.ar    1  ZINC000482910431    0.1700
     10 N10        -1.0302    4.3859   56.0760 N.am    1  ZINC000482910431   -0.6800
     11 C11        -1.8351    3.8765   55.1225 C.2     1  ZINC000482910431    0.7100
     12 O12        -2.1089    2.6919   55.1272 O.2     1  ZINC000482910431   -0.5500
     13 N13        -2.3364    4.6802   54.1637 N.am    1  ZINC000482910431   -0.7300
     14 C14        -3.2098    4.1262   53.1263 C.3     1  ZINC000482910431    0.1400
     15 H15        -3.9711    3.4858   53.5717 H       1  ZINC000482910431    0.1400
     16 C16        -3.8684    5.2623   52.3098 C.3     1  ZINC000482910431   -0.1400
     17 C17        -3.8909    4.6568   50.8888 C.3     1  ZINC000482910431    0.0900
     18 N18        -2.7972    3.6784   50.8628 N.am    1  ZINC000482910431   -0.5600
     19 C19        -2.2406    3.1471   49.6936 C.ar    1  ZINC000482910431    0.2000
     20 C20        -2.6250    1.8887   49.2501 C.ar    1  ZINC000482910431   -0.1600
     21 C21        -2.0749    1.3654   48.0960 C.ar    1  ZINC000482910431   -0.0500
     22 C22        -1.1412    2.0935   47.3811 C.ar    1  ZINC000482910431   -0.1000
     23 Cl23       -0.4520    1.4327   45.9312 Cl      1  ZINC000482910431   -0.0500
     24 C24        -0.7553    3.3504   47.8205 C.ar    1  ZINC000482910431    0.1400
     25 F25         0.1565    4.0601   47.1204 F       1  ZINC000482910431   -0.1200
     26 C26        -1.3074    3.8801   48.9725 C.ar    1  ZINC000482910431   -0.1900
     27 C27        -2.3992    3.3552   52.1079 C.2     1  ZINC000482910431    0.5000
     28 O28        -1.5177    2.5651   52.3723 O.2     1  ZINC000482910431   -0.4800
     29 C29         0.2031    2.4120   56.7218 C.ar    1  ZINC000482910431   -0.1400
     30 C30         0.7205    1.5936   57.7067 C.ar    1  ZINC000482910431   -0.0900
     31 H31         2.1281   -0.2574   58.7136 H       1  ZINC000482910431    0.0800
     32 H32         3.0924    1.0991   59.3450 H       1  ZINC000482910431    0.0700
     33 H33         2.7644   -0.3151   60.3750 H       1  ZINC000482910431    0.0700
     34 H34         0.4573   -0.7191   61.2446 H       1  ZINC000482910431    0.0700
     35 H35        -0.8585    0.4073   60.8341 H       1  ZINC000482910431    0.0700
     36 H36        -0.1791   -0.6613   59.5833 H       1  ZINC000482910431    0.0800
     37 H37        -0.3408    3.2757   60.4332 H       1  ZINC000482910431    0.1400
     38 H38        -1.2589    4.7461   58.6862 H       1  ZINC000482910431    0.1400
     39 H39        -0.8117    5.3310   56.0722 H       1  ZINC000482910431    0.4100
     40 H40        -2.1189    5.6255   54.1607 H       1  ZINC000482910431    0.4000
     41 H41        -4.8795    5.4621   52.6647 H       1  ZINC000482910431    0.1100
     42 H42        -3.2605    6.1666   52.3389 H       1  ZINC000482910431    0.1000
     43 H43        -4.8443    4.1616   50.7048 H       1  ZINC000482910431    0.0900
     44 H44        -3.7191    5.4344   50.1446 H       1  ZINC000482910431    0.1000
     45 H45        -3.3538    1.3189   49.8076 H       1  ZINC000482910431    0.1700
     46 H46        -2.3740    0.3864   47.7517 H       1  ZINC000482910431    0.1500
     47 H47        -1.0075    4.8594   49.3151 H       1  ZINC000482910431    0.1500
     48 H48         0.3564    2.1686   55.6808 H       1  ZINC000482910431    0.1300
     49 H49         1.2753    0.7076   57.4354 H       1  ZINC000482910431    0.1300
@<TRIPOS>BOND
     1     1     2    1
     2     1    31    1
     3     1    32    1
     4     1    33    1
     5     2     3    1
     6     2     4    1
     7     2     6    1
     8     3    34    1
     9     3    35    1
    10     3    36    1
    11     4     5    3
    12     6    30   ar
    13     6     7   ar
    14     7     8   ar
    15     7    37    1
    16     8     9   ar
    17     8    38    1
    18     9    10    1
    19     9    29   ar
    20    10    11   am
    21    10    39    1
    22    11    12    2
    23    11    13   am
    24    13    14    1
    25    13    40    1
    26    14    15    1
    27    14    27    1
    28    14    16    1
    29    16    17    1
    30    16    41    1
    31    16    42    1
    32    17    18    1
    33    17    43    1
    34    17    44    1
    35    18    19    1
    36    18    27   am
    37    19    26   ar
    38    19    20   ar
    39    20    21   ar
    40    20    45    1
    41    21    22   ar
    42    21    46    1
    43    22    23    1
    44    22    24   ar
    45    24    25    1
    46    24    26   ar
    47    26    47    1
    48    27    28    2
    49    29    30   ar
    50    29    48    1
    51    30    49    1
@<TRIPOS>SUBSTRUCTURE
     1 ZINC000482910431        1 TEMP              0 ****  ****    0 ROOT


##########                                Name:    ZINC000826324849
##########                DOCK_Rotatable_Bonds:                   4
##########                         Heavy_Atoms:                  27
##########                    Molecular_Weight:             395.374
##########                DOCK_Rotatable_Bonds:                   4
##########                       Formal_Charge:           0.0400001
##########                     HBond_Acceptors:                  13
##########                        HBond_Donors:                   1
##########                         Heavy_Atoms:                  27
##########                          Grid_Score:          -27.244179
##########                     Grid_vdw_energy:          -25.903162
##########                      Grid_es_energy:           -1.341017
##########           Internal_energy_repulsive:           86.560150

@<TRIPOS>MOLECULE
ZINC000826324849
 41 44 1 0 0
SMALL
USER_CHARGES


@<TRIPOS>ATOM
      1 C1        -15.8757    1.2452   61.2535 C.3     1  ZINC000826324849   -0.0600
      2 C2        -14.5320    0.6416   61.5721 C.2     1  ZINC000826324849    0.2000
      3 N3        -13.3592    1.1358   61.2563 N.2     1  ZINC000826324849   -0.4600
      4 C4        -12.4567    0.2645   61.7413 C.2     1  ZINC000826324849    0.1600
      5 C5        -10.9580    0.3822   61.6372 C.3     1  ZINC000826324849    0.2200
      6 H6        -10.6861    1.4109   61.4002 H       1  ZINC000826324849    0.1300
      7 C7        -10.3141   -0.0288   62.9662 C.3     1  ZINC000826324849    0.0600
      8 O8         -8.8954   -0.0932   62.8020 O.3     1  ZINC000826324849   -0.3600
      9 C9         -8.4596   -1.0726   61.8562 C.3     1  ZINC000826324849    0.0400
     10 C10        -9.0084   -0.7149   60.4702 C.3     1  ZINC000826324849    0.0800
     11 N11       -10.4623   -0.5167   60.5829 N.am    1  ZINC000826324849   -1.0100
     12 S12       -11.5095   -1.2840   59.5547 S.o2    1  ZINC000826324849    2.7100
     13 O13       -11.1989   -2.6688   59.6255 O.2     1  ZINC000826324849   -0.9300
     14 O14       -12.8011   -0.7619   59.8344 O.2     1  ZINC000826324849   -0.9300
     15 C15       -11.1072   -0.7668   57.9190 C.ar    1  ZINC000826324849   -0.5800
     16 C16       -10.3207    0.3498   57.7211 C.ar    1  ZINC000826324849   -0.0400
     17 C17       -10.0034    0.7581   56.4379 C.ar    1  ZINC000826324849   -0.0800
     18 C18       -10.4717    0.0514   55.3459 C.ar    1  ZINC000826324849   -0.1100
     19 C19       -11.2607   -1.0691   55.5317 C.ar    1  ZINC000826324849    0.1300
     20 F20       -11.7181   -1.7598   54.4646 F       1  ZINC000826324849   -0.1100
     21 C21       -11.5780   -1.4877   56.8240 C.ar    1  ZINC000826324849    0.0500
     22 C22       -12.4239   -2.6898   57.0312 C.2     1  ZINC000826324849    0.1800
     23 N23       -13.5793   -2.7399   57.6638 N.2     1  ZINC000826324849   -0.2600
     24 N24       -13.9962   -3.9589   57.6273 N.pl3   1  ZINC000826324849   -0.2200
     25 N25       -13.1418   -4.6823   56.9918 N.2     1  ZINC000826324849   -0.0200
     26 N26       -12.1643   -3.9344   56.6062 N.2     1  ZINC000826324849   -0.2600
     27 N27       -13.1145   -0.6972   62.3167 N.2     1  ZINC000826324849   -0.3800
     28 O28       -14.3080   -0.4967   62.2357 O.3     1  ZINC000826324849    0.0900
     29 H29       -16.6644    0.6061   61.6503 H       1  ZINC000826324849    0.1000
     30 H30       -15.9465    2.2339   61.7069 H       1  ZINC000826324849    0.1100
     31 H31       -15.9877    1.3322   60.1728 H       1  ZINC000826324849    0.1100
     32 H32       -10.5590    0.7069   63.7323 H       1  ZINC000826324849    0.1200
     33 H33       -10.6906   -1.0068   63.2661 H       1  ZINC000826324849    0.0600
     34 H34        -7.3701   -1.0877   61.8235 H       1  ZINC000826324849    0.1200
     35 H35        -8.8294   -2.0543   62.1520 H       1  ZINC000826324849    0.0600
     36 H36        -8.5397    0.2030   60.1154 H       1  ZINC000826324849    0.0900
     37 H37        -8.8015   -1.5267   59.7728 H       1  ZINC000826324849    0.1100
     38 H38        -9.9523    0.9064   58.5701 H       1  ZINC000826324849    0.1400
     39 H39        -9.3874    1.6326   56.2886 H       1  ZINC000826324849    0.1500
     40 H40       -10.2215    0.3752   54.3464 H       1  ZINC000826324849    0.1500
     41 H41       -14.8236   -4.2808   58.0179 H       1  ZINC000826324849    0.4800
@<TRIPOS>BOND
     1     1     2    1
     2     1    29    1
     3     1    30    1
     4     1    31    1
     5     2    28    1
     6     2     3    2
     7     3     4    1
     8     4     5    1
     9     4    27    2
    10     5     6    1
    11     5    11    1
    12     5     7    1
    13     7     8    1
    14     7    32    1
    15     7    33    1
    16     8     9    1
    17     9    10    1
    18     9    34    1
    19     9    35    1
    20    10    11    1
    21    10    36    1
    22    10    37    1
    23    11    12   am
    24    12    13    2
    25    12    14    2
    26    12    15    1
    27    15    21   ar
    28    15    16   ar
    29    16    17   ar
    30    16    38    1
    31    17    18   ar
    32    17    39    1
    33    18    19   ar
    34    18    40    1
    35    19    20    1
    36    19    21   ar
    37    21    22    1
    38    22    26    1
    39    22    23    2
    40    23    24    1
    41    24    25    1
    42    24    41    1
    43    25    26    2
    44    27    28    1
@<TRIPOS>SUBSTRUCTURE
     1 ZINC000826324849        1 TEMP              0 ****  ****    0 ROOT


##########                                Name:    ZINC000966038509
##########                DOCK_Rotatable_Bonds:                   5
##########                         Heavy_Atoms:                  25
##########                    Molecular_Weight:             346.445
##########                DOCK_Rotatable_Bonds:                   5
##########                       Formal_Charge:           0.0299998
##########                     HBond_Acceptors:                   5
##########                        HBond_Donors:                   1
##########                         Heavy_Atoms:                  25
##########                          Grid_Score:          -27.241056
##########                     Grid_vdw_energy:          -25.787653
##########                      Grid_es_energy:           -1.453404
##########           Internal_energy_repulsive:           19.430725

@<TRIPOS>MOLECULE
ZINC000966038509
 52 54 1 0 0
SMALL
USER_CHARGES


@<TRIPOS>ATOM
      1 C1         -9.3693    2.0918   52.2893 C.3     1  ZINC000966038509   -0.1200
      2 C2         -9.9937    0.8489   52.8693 C.ar    1  ZINC000966038509   -0.0100
      3 C3        -10.2751   -0.2269   52.0549 C.ar    1  ZINC000966038509   -0.1600
      4 C4        -10.8501   -1.3709   52.5872 C.ar    1  ZINC000966038509    0.1300
      5 F5        -11.1243   -2.4224   51.7845 F       1  ZINC000966038509   -0.1300
      6 C6        -11.1441   -1.4398   53.9404 C.ar    1  ZINC000966038509   -0.1600
      7 C7        -10.8668   -0.3697   54.7638 C.ar    1  ZINC000966038509   -0.0100
      8 C8        -11.1875   -0.4459   56.2344 C.3     1  ZINC000966038509   -0.1200
      9 C9        -10.2830    0.7829   54.2339 C.ar    1  ZINC000966038509   -0.1500
     10 C10        -9.9835    1.9328   55.1115 C.2     1  ZINC000966038509    0.5700
     11 O11       -10.7868    2.8386   55.2219 O.2     1  ZINC000966038509   -0.5200
     12 N12        -8.8198    1.9778   55.7900 N.am    1  ZINC000966038509   -0.7100
     13 C13        -8.5237    3.1173   56.6616 C.3     1  ZINC000966038509    0.1300
     14 H14        -8.5147    4.0483   56.0947 H       1  ZINC000966038509    0.1200
     15 C15        -9.5292    3.1930   57.8376 C.3     1  ZINC000966038509    0.0900
     16 N16        -9.0306    2.2171   58.8238 N.am    1  ZINC000966038509   -0.6200
     17 C17        -9.7737    1.6023   59.7653 C.2     1  ZINC000966038509    0.5400
     18 O18       -10.9602    1.8381   59.8509 O.2     1  ZINC000966038509   -0.5300
     19 C19        -9.1300    0.6220   60.7116 C.3     1  ZINC000966038509   -0.1100
     20 C20       -10.1667    0.0961   61.7353 C.3     1  ZINC000966038509   -0.1100
     21 C21        -9.5552   -1.2567   62.1769 C.3     1  ZINC000966038509   -0.1200
     22 C22        -8.9441   -1.8356   60.8841 C.3     1  ZINC000966038509   -0.1200
     23 C23        -8.6737   -0.6411   59.9525 C.3     1  ZINC000966038509   -0.1100
     24 C24        -7.5888    2.0251   58.6096 C.3     1  ZINC000966038509    0.1000
     25 C25        -7.1812    2.9099   57.4114 C.3     1  ZINC000966038509   -0.1100
     26 H26        -6.7797    3.8633   57.7550 H       1  ZINC000966038509    0.1000
     27 C27        -6.1666    2.1857   56.5242 C.3     1  ZINC000966038509   -0.1400
     28 H28        -8.2835    2.0054   52.3290 H       1  ZINC000966038509    0.0800
     29 H29        -9.6869    2.2083   51.2530 H       1  ZINC000966038509    0.0800
     30 H30        -9.6861    2.9606   52.8662 H       1  ZINC000966038509    0.0700
     31 H31       -10.0478   -0.1787   51.0002 H       1  ZINC000966038509    0.1400
     32 H32       -11.5916   -2.3333   54.3501 H       1  ZINC000966038509    0.1400
     33 H33       -10.3296   -0.8482   56.7729 H       1  ZINC000966038509    0.0800
     34 H34       -11.4160    0.5521   56.6085 H       1  ZINC000966038509    0.0700
     35 H35       -12.0490   -1.0964   56.3852 H       1  ZINC000966038509    0.0800
     36 H36        -8.1783    1.2557   55.7009 H       1  ZINC000966038509    0.4000
     37 H37        -9.5372    4.1951   58.2660 H       1  ZINC000966038509    0.0800
     38 H38       -10.5281    2.9154   57.5010 H       1  ZINC000966038509    0.0800
     39 H39        -8.2864    1.0849   61.2236 H       1  ZINC000966038509    0.0900
     40 H40       -10.2522    0.7764   62.5827 H       1  ZINC000966038509    0.0700
     41 H41       -11.1362   -0.0548   61.2605 H       1  ZINC000966038509    0.0700
     42 H42        -8.7807   -1.0985   62.9273 H       1  ZINC000966038509    0.0700
     43 H43       -10.3311   -1.9186   62.5617 H       1  ZINC000966038509    0.0700
     44 H44        -8.0108   -2.3512   61.1106 H       1  ZINC000966038509    0.0700
     45 H45        -9.6469   -2.5238   60.4145 H       1  ZINC000966038509    0.0700
     46 H46        -9.2454   -0.7496   59.0308 H       1  ZINC000966038509    0.0800
     47 H47        -7.6093   -0.5770   59.7269 H       1  ZINC000966038509    0.0700
     48 H48        -7.0381    2.3297   59.4995 H       1  ZINC000966038509    0.0800
     49 H49        -7.3837    0.9786   58.3843 H       1  ZINC000966038509    0.0700
     50 H50        -6.5983    1.2505   56.1675 H       1  ZINC000966038509    0.0600
     51 H51        -5.9130    2.8170   55.6725 H       1  ZINC000966038509    0.0700
     52 H52        -5.2660    1.9738   57.1003 H       1  ZINC000966038509    0.0700
@<TRIPOS>BOND
     1     1     2    1
     2     1    28    1
     3     1    29    1
     4     1    30    1
     5     2     9   ar
     6     2     3   ar
     7     3     4   ar
     8     3    31    1
     9     4     5    1
    10     4     6   ar
    11     6     7   ar
    12     6    32    1
    13     7     8    1
    14     7     9   ar
    15     8    33    1
    16     8    34    1
    17     8    35    1
    18     9    10    1
    19    10    11    2
    20    10    12   am
    21    12    13    1
    22    12    36    1
    23    13    14    1
    24    13    25    1
    25    13    15    1
    26    15    16    1
    27    15    37    1
    28    15    38    1
    29    16    17   am
    30    16    24    1
    31    17    18    2
    32    17    19    1
    33    19    23    1
    34    19    20    1
    35    19    39    1
    36    20    21    1
    37    20    40    1
    38    20    41    1
    39    21    22    1
    40    21    42    1
    41    21    43    1
    42    22    23    1
    43    22    44    1
    44    22    45    1
    45    23    46    1
    46    23    47    1
    47    24    25    1
    48    24    48    1
    49    24    49    1
    50    25    26    1
    51    25    27    1
    52    27    50    1
    53    27    51    1
    54    27    52    1
@<TRIPOS>SUBSTRUCTURE
     1 ZINC000966038509        1 TEMP              0 ****  ****    0 ROOT


##########                                Name:    ZINC001356153960
##########                DOCK_Rotatable_Bonds:                   8
##########                         Heavy_Atoms:                  24
##########                    Molecular_Weight:             334.366
##########                DOCK_Rotatable_Bonds:                   8
##########                       Formal_Charge:           0.0100003
##########                     HBond_Acceptors:                   6
##########                        HBond_Donors:                   1
##########                         Heavy_Atoms:                  24
##########                          Grid_Score:          -27.227655
##########                     Grid_vdw_energy:          -25.204872
##########                      Grid_es_energy:           -2.022784
##########           Internal_energy_repulsive:           14.269938

@<TRIPOS>MOLECULE
ZINC001356153960
 44 46 1 0 0
SMALL
USER_CHARGES


@<TRIPOS>ATOM
      1 O1          1.3332    4.7339   48.0651 O.2     1  ZINC001356153960   -0.5200
      2 C2          0.7744    4.7570   46.9881 C.2     1  ZINC001356153960    0.5100
      3 N3         -0.1203    5.7270   46.7139 N.am    1  ZINC001356153960   -0.7000
      4 C4         -0.4137    6.7568   47.7138 C.3     1  ZINC001356153960    0.1300
      5 C5         -1.8847    6.6645   48.1245 C.3     1  ZINC001356153960   -0.0800
      6 H6         -2.5159    6.5322   47.2458 H       1  ZINC001356153960    0.0900
      7 C7         -2.0894    5.5255   49.0961 C.2     1  ZINC001356153960   -0.1700
      8 C8         -2.8469    5.8899   50.0946 C.2     1  ZINC001356153960   -0.1600
      9 C9         -3.2737    7.3327   49.9555 C.3     1  ZINC001356153960   -0.1000
     10 C10        -2.3065    7.9310   48.9050 C.3     1  ZINC001356153960   -0.1200
     11 C11         1.0736    3.7066   45.9681 C.2     1  ZINC001356153960    0.5100
     12 O12         2.0114    3.8460   45.2106 O.2     1  ZINC001356153960   -0.5100
     13 N13         0.3020    2.6044   45.8896 N.am    1  ZINC001356153960   -0.5500
     14 C14        -0.8301    2.4361   46.8040 C.3     1  ZINC001356153960    0.1300
     15 C15        -0.9107    0.9971   47.2442 C.ar    1  ZINC001356153960   -0.1600
     16 C16        -1.9849    0.2167   46.8615 C.ar    1  ZINC001356153960   -0.0300
     17 C17        -2.0572   -1.1049   47.2599 C.ar    1  ZINC001356153960   -0.1700
     18 C18        -1.0589   -1.6452   48.0525 C.ar    1  ZINC001356153960    0.1400
     19 F19        -1.1323   -2.9355   48.4460 F       1  ZINC001356153960   -0.1300
     20 C20         0.0151   -0.8627   48.4414 C.ar    1  ZINC001356153960   -0.2000
     21 C21         0.0893    0.4588   48.0371 C.ar    1  ZINC001356153960    0.1500
     22 F22         1.1364    1.2236   48.4161 F       1  ZINC001356153960   -0.1200
     23 C23         0.5951    1.5746   44.8895 C.3     1  ZINC001356153960    0.0700
     24 C24         0.4242    1.9515   43.4165 C.3     1  ZINC001356153960   -0.1900
     25 C25        -0.5810    1.0126   44.0884 C.3     1  ZINC001356153960   -0.1800
     26 H26        -0.5700    5.7433   45.8547 H       1  ZINC001356153960    0.4100
     27 H27         0.2181    6.6042   48.5888 H       1  ZINC001356153960    0.0800
     28 H28        -0.2158    7.7415   47.2901 H       1  ZINC001356153960    0.0800
     29 H29        -1.6644    4.5395   48.9797 H       1  ZINC001356153960    0.1200
     30 H30        -3.1311    5.2451   50.9130 H       1  ZINC001356153960    0.1300
     31 H31        -4.3022    7.3918   49.5994 H       1  ZINC001356153960    0.0800
     32 H32        -3.1720    7.8524   50.9083 H       1  ZINC001356153960    0.0700
     33 H33        -1.4473    8.3985   49.3861 H       1  ZINC001356153960    0.0800
     34 H34        -2.8213    8.6382   48.2545 H       1  ZINC001356153960    0.0800
     35 H35        -0.6914    3.0755   47.6756 H       1  ZINC001356153960    0.0900
     36 H36        -1.7532    2.7122   46.2940 H       1  ZINC001356153960    0.1400
     37 H37        -2.7666    0.6386   46.2472 H       1  ZINC001356153960    0.1600
     38 H38        -2.8952   -1.7150   46.9567 H       1  ZINC001356153960    0.1400
     39 H39         0.7941   -1.2832   49.0598 H       1  ZINC001356153960    0.1500
     40 H40         1.4043    0.8898   45.1432 H       1  ZINC001356153960    0.1400
     41 H41         0.0937    2.9655   43.1915 H       1  ZINC001356153960    0.1400
     42 H42         1.1207    1.5142   42.7012 H       1  ZINC001356153960    0.0900
     43 H43        -0.5453   -0.0418   43.8148 H       1  ZINC001356153960    0.1000
     44 H44        -1.5729    1.4091   44.3054 H       1  ZINC001356153960    0.0900
@<TRIPOS>BOND
     1     1     2    2
     2     2     3   am
     3     2    11    1
     4     3     4    1
     5     3    26    1
     6     4     5    1
     7     4    27    1
     8     4    28    1
     9     5     6    1
    10     5    10    1
    11     5     7    1
    12     7     8    2
    13     7    29    1
    14     8     9    1
    15     8    30    1
    16     9    10    1
    17     9    31    1
    18     9    32    1
    19    10    33    1
    20    10    34    1
    21    11    12    2
    22    11    13   am
    23    13    14    1
    24    13    23    1
    25    14    15    1
    26    14    35    1
    27    14    36    1
    28    15    21   ar
    29    15    16   ar
    30    16    17   ar
    31    16    37    1
    32    17    18   ar
    33    17    38    1
    34    18    19    1
    35    18    20   ar
    36    20    21   ar
    37    20    39    1
    38    21    22    1
    39    23    25    1
    40    23    24    1
    41    23    40    1
    42    24    25    1
    43    24    41    1
    44    24    42    1
    45    25    43    1
    46    25    44    1
@<TRIPOS>SUBSTRUCTURE
     1 ZINC001356153960        1 TEMP              0 ****  ****    0 ROOT


##########                                Name:    ZINC000516003207
##########                DOCK_Rotatable_Bonds:                   5
##########                         Heavy_Atoms:                  24
##########                    Molecular_Weight:             342.462
##########                DOCK_Rotatable_Bonds:                   5
##########                       Formal_Charge:          -0.0200001
##########                     HBond_Acceptors:                   5
##########                        HBond_Donors:                   1
##########                         Heavy_Atoms:                  24
##########                          Grid_Score:          -27.191717
##########                     Grid_vdw_energy:          -26.702734
##########                      Grid_es_energy:           -0.488982
##########           Internal_energy_repulsive:            6.372895

@<TRIPOS>MOLECULE
ZINC000516003207
 46 49 1 0 0
SMALL
USER_CHARGES


@<TRIPOS>ATOM
      1 C1          1.3858    1.0953   44.4200 C.3     1  ZINC000516003207    0.0300
      2 O2          0.2031    1.3745   45.1719 O.3     1  ZINC000516003207   -0.3600
      3 C3          0.3465    1.1682   46.5786 C.3     1  ZINC000516003207    0.0900
      4 H4          1.0606    0.3812   46.8210 H       1  ZINC000516003207    0.0800
      5 C5          0.5654    2.4676   47.3745 C.3     1  ZINC000516003207   -0.1700
      6 C6         -0.9657    2.5579   47.5077 C.3     1  ZINC000516003207    0.1500
      7 H7         -1.4439    3.1058   46.6959 H       1  ZINC000516003207    0.1200
      8 N8         -1.4161    2.9935   48.8320 N.am    1  ZINC000516003207   -0.7200
      9 C9         -1.6017    4.3047   49.0830 C.2     1  ZINC000516003207    0.5600
     10 O10        -1.3969    5.1255   48.2102 O.2     1  ZINC000516003207   -0.5300
     11 C11        -2.0545    4.7445   50.4201 C.ar    1  ZINC000516003207   -0.1400
     12 C12        -2.9160    5.8364   50.5431 C.ar    1  ZINC000516003207   -0.0800
     13 C13        -3.3387    6.2477   51.7915 C.ar    1  ZINC000516003207   -0.1200
     14 C14        -2.9134    5.5828   52.9247 C.ar    1  ZINC000516003207   -0.0800
     15 C15        -2.0531    4.4904   52.8152 C.ar    1  ZINC000516003207   -0.0300
     16 C16        -1.5978    3.7781   54.0343 C.2     1  ZINC000516003207    0.1100
     17 C17        -2.2867    3.7931   55.1931 C.2     1  ZINC000516003207   -0.2600
     18 S18        -1.3945    2.8269   56.3653 S.3     1  ZINC000516003207    0.1400
     19 C19        -0.1911    2.4975   55.1972 C.2     1  ZINC000516003207    0.0600
     20 C20         1.0344    1.6546   55.4404 C.3     1  ZINC000516003207   -0.0800
     21 N21        -0.4809    3.0663   54.0785 N.2     1  ZINC000516003207   -0.4700
     22 C22        -1.6271    4.0667   51.5607 C.ar    1  ZINC000516003207   -0.0300
     23 C23        -0.9852    1.0376   47.3186 C.3     1  ZINC000516003207   -0.1100
     24 C24        -2.1826    0.3359   46.6767 C.3     1  ZINC000516003207   -0.1200
     25 C25        -1.8183   -0.8863   47.5390 C.3     1  ZINC000516003207   -0.1400
     26 C26        -1.1390    0.0943   48.5122 C.3     1  ZINC000516003207   -0.1200
     27 H27         1.6709    0.0532   44.5647 H       1  ZINC000516003207    0.0400
     28 H28         1.1950    1.2762   43.3621 H       1  ZINC000516003207    0.0900
     29 H29         2.1937    1.7435   44.7595 H       1  ZINC000516003207    0.0400
     30 H30         1.0775    2.3160   48.3248 H       1  ZINC000516003207    0.0900
     31 H31         0.9999    3.2734   46.7830 H       1  ZINC000516003207    0.0800
     32 H32        -1.5808    2.3384   49.5281 H       1  ZINC000516003207    0.4000
     33 H33        -3.2520    6.3602   49.6604 H       1  ZINC000516003207    0.1300
     34 H34        -4.0046    7.0933   51.8821 H       1  ZINC000516003207    0.1400
     35 H35        -3.2473    5.9099   53.8984 H       1  ZINC000516003207    0.1300
     36 H36        -3.2199    4.3066   55.3712 H       1  ZINC000516003207    0.1800
     37 H37         1.0291    1.2941   56.4690 H       1  ZINC000516003207    0.0800
     38 H38         1.0324    0.8050   54.7575 H       1  ZINC000516003207    0.0900
     39 H39         1.9280    2.2552   55.2704 H       1  ZINC000516003207    0.0900
     40 H40        -0.9610    3.2213   51.4711 H       1  ZINC000516003207    0.1500
     41 H41        -3.1422    0.7835   46.9355 H       1  ZINC000516003207    0.0800
     42 H42        -2.0678    0.1660   45.6062 H       1  ZINC000516003207    0.0800
     43 H43        -2.6842   -1.3933   47.9646 H       1  ZINC000516003207    0.0700
     44 H44        -1.1227   -1.5708   47.0534 H       1  ZINC000516003207    0.0800
     45 H45        -0.1904   -0.2687   48.9079 H       1  ZINC000516003207    0.0700
     46 H46        -1.8052    0.4740   49.2868 H       1  ZINC000516003207    0.0900
@<TRIPOS>BOND
     1     1     2    1
     2     1    27    1
     3     1    28    1
     4     1    29    1
     5     2     3    1
     6     3     4    1
     7     3    23    1
     8     3     5    1
     9     5     6    1
    10     5    30    1
    11     5    31    1
    12     6     7    1
    13     6     8    1
    14     6    23    1
    15     8     9   am
    16     8    32    1
    17     9    10    2
    18     9    11    1
    19    11    22   ar
    20    11    12   ar
    21    12    13   ar
    22    12    33    1
    23    13    14   ar
    24    13    34    1
    25    14    15   ar
    26    14    35    1
    27    15    16    1
    28    15    22   ar
    29    16    21    1
    30    16    17    2
    31    17    18    1
    32    17    36    1
    33    18    19    1
    34    19    20    1
    35    19    21    2
    36    20    37    1
    37    20    38    1
    38    20    39    1
    39    22    40    1
    40    23    26    1
    41    23    24    1
    42    24    25    1
    43    24    41    1
    44    24    42    1
    45    25    26    1
    46    25    43    1
    47    25    44    1
    48    26    45    1
    49    26    46    1
@<TRIPOS>SUBSTRUCTURE
     1 ZINC000516003207        1 TEMP              0 ****  ****    0 ROOT


##########                                Name:    ZINC000010935976
##########                DOCK_Rotatable_Bonds:                   3
##########                         Heavy_Atoms:                  26
##########                    Molecular_Weight:             391.558
##########                DOCK_Rotatable_Bonds:                   3
##########                       Formal_Charge:         -0.00999979
##########                     HBond_Acceptors:                   7
##########                        HBond_Donors:                   1
##########                         Heavy_Atoms:                  26
##########                          Grid_Score:          -27.163570
##########                     Grid_vdw_energy:          -27.546362
##########                      Grid_es_energy:            0.382791
##########           Internal_energy_repulsive:          126.601410

@<TRIPOS>MOLECULE
ZINC000010935976
 51 54 1 0 0
SMALL
USER_CHARGES


@<TRIPOS>ATOM
      1 C1         -7.3249    3.9311   55.7418 C.3     1  ZINC000010935976   -0.0800
      2 C2         -8.0622    2.8098   56.4275 C.2     1  ZINC000010935976   -0.2100
      3 C3         -8.0882    2.6255   57.7330 C.2     1  ZINC000010935976   -0.0400
      4 C4         -7.3693    3.5352   58.6958 C.3     1  ZINC000010935976   -0.1000
      5 C5         -8.8629    1.4792   58.1710 C.2     1  ZINC000010935976   -0.2300
      6 C6         -9.4332    0.7928   57.1013 C.2     1  ZINC000010935976    0.0900
      7 N7        -10.1864   -0.3002   57.3353 N.2     1  ZINC000010935976   -0.4900
      8 C8        -10.3997   -0.7397   58.5522 C.2     1  ZINC000010935976    0.3400
      9 S9        -11.3943   -2.1753   58.7861 S.3     1  ZINC000010935976    0.0500
     10 C10       -12.3847   -2.1216   57.2721 C.3     1  ZINC000010935976   -0.1000
     11 H11       -11.7396   -1.9075   56.4199 H       1  ZINC000010935976    0.1400
     12 C12       -13.4531   -1.0325   57.3947 C.3     1  ZINC000010935976   -0.1000
     13 C13       -13.9554   -0.9306   58.8236 C.3     1  ZINC000010935976   -0.1300
     14 C14       -14.7253   -2.1521   59.2911 C.3     1  ZINC000010935976   -0.1400
     15 C15       -13.8056   -3.3704   59.3925 C.3     1  ZINC000010935976    0.0700
     16 N16       -13.7420   -4.0236   58.0750 N.am    1  ZINC000010935976   -0.7200
     17 C17       -13.0731   -3.4547   57.0669 C.2     1  ZINC000010935976    0.5400
     18 O18       -13.0237   -4.0052   55.9873 O.2     1  ZINC000010935976   -0.5200
     19 N19        -9.8694   -0.1121   59.6421 N.am    1  ZINC000010935976   -0.5100
     20 C20       -10.1315   -0.6359   60.9848 C.3     1  ZINC000010935976    0.1200
     21 C21        -8.8716   -1.3365   61.5341 C.3     1  ZINC000010935976   -0.1300
     22 C22        -8.1744   -0.2491   62.3886 C.3     1  ZINC000010935976   -0.1300
     23 C23        -9.3680    0.4824   63.0513 C.3     1  ZINC000010935976   -0.1100
     24 C24       -10.4471    0.5206   61.9495 C.3     1  ZINC000010935976   -0.1200
     25 C25        -9.1051    0.9866   59.4883 C.2     1  ZINC000010935976    0.5600
     26 O26        -8.6292    1.5513   60.4582 O.2     1  ZINC000010935976   -0.5000
     27 S27        -9.0016    1.5874   55.5925 S.3     1  ZINC000010935976    0.2100
     28 H28        -7.4702    3.8558   54.6641 H       1  ZINC000010935976    0.0700
     29 H29        -7.7097    4.8880   56.0942 H       1  ZINC000010935976    0.0800
     30 H30        -6.2617    3.8604   55.9709 H       1  ZINC000010935976    0.0800
     31 H31        -8.0337    4.3461   58.9944 H       1  ZINC000010935976    0.0700
     32 H32        -7.0698    2.9678   59.5769 H       1  ZINC000010935976    0.0800
     33 H33        -6.4847    3.9496   58.2123 H       1  ZINC000010935976    0.0700
     34 H34       -13.0260   -0.0753   57.0953 H       1  ZINC000010935976    0.0900
     35 H35       -14.2883   -1.2733   56.7370 H       1  ZINC000010935976    0.0900
     36 H36       -13.1001   -0.7847   59.4833 H       1  ZINC000010935976    0.0700
     37 H37       -14.6047   -0.0587   58.9027 H       1  ZINC000010935976    0.0800
     38 H38       -15.1601   -1.9488   60.2697 H       1  ZINC000010935976    0.0800
     39 H39       -15.5250   -2.3648   58.5817 H       1  ZINC000010935976    0.0700
     40 H40       -12.8070   -3.0511   59.6910 H       1  ZINC000010935976    0.1100
     41 H41       -14.2039   -4.0691   60.1283 H       1  ZINC000010935976    0.0900
     42 H42       -14.1865   -4.8747   57.9371 H       1  ZINC000010935976    0.4000
     43 H43       -10.9663   -1.3362   60.9557 H       1  ZINC000010935976    0.1000
     44 H44        -9.1489   -2.1892   62.1539 H       1  ZINC000010935976    0.0800
     45 H45        -8.2239   -1.6527   60.7164 H       1  ZINC000010935976    0.0700
     46 H46        -7.5326   -0.7036   63.1435 H       1  ZINC000010935976    0.0600
     47 H47        -7.6059    0.4332   61.7567 H       1  ZINC000010935976    0.1100
     48 H48        -9.7255   -0.0765   63.9161 H       1  ZINC000010935976    0.0600
     49 H49        -9.0826    1.4937   63.3408 H       1  ZINC000010935976    0.0700
     50 H50       -10.4052    1.4716   61.4186 H       1  ZINC000010935976    0.0800
     51 H51       -11.4348    0.3811   62.3891 H       1  ZINC000010935976    0.0700
@<TRIPOS>BOND
     1     1     2    1
     2     1    28    1
     3     1    29    1
     4     1    30    1
     5     2    27    1
     6     2     3    2
     7     3     4    1
     8     3     5    1
     9     4    31    1
    10     4    32    1
    11     4    33    1
    12     5    25    1
    13     5     6    2
    14     6     7    1
    15     6    27    1
    16     7     8    2
    17     8     9    1
    18     8    19    1
    19     9    10    1
    20    10    11    1
    21    10    17    1
    22    10    12    1
    23    12    13    1
    24    12    34    1
    25    12    35    1
    26    13    14    1
    27    13    36    1
    28    13    37    1
    29    14    15    1
    30    14    38    1
    31    14    39    1
    32    15    16    1
    33    15    40    1
    34    15    41    1
    35    16    17   am
    36    16    42    1
    37    17    18    2
    38    19    20    1
    39    19    25   am
    40    20    24    1
    41    20    21    1
    42    20    43    1
    43    21    22    1
    44    21    44    1
    45    21    45    1
    46    22    23    1
    47    22    46    1
    48    22    47    1
    49    23    24    1
    50    23    48    1
    51    23    49    1
    52    24    50    1
    53    24    51    1
    54    25    26    2
@<TRIPOS>SUBSTRUCTURE
     1 ZINC000010935976        1 TEMP              0 ****  ****    0 ROOT


##########                                Name:    ZINC000279974681
##########                DOCK_Rotatable_Bonds:                   4
##########                         Heavy_Atoms:                  23
##########                    Molecular_Weight:              338.79
##########                DOCK_Rotatable_Bonds:                   4
##########                       Formal_Charge:           0.0100008
##########                     HBond_Acceptors:                   7
##########                        HBond_Donors:                   1
##########                         Heavy_Atoms:                  23
##########                          Grid_Score:          -27.158503
##########                     Grid_vdw_energy:          -25.272705
##########                      Grid_es_energy:           -1.885797
##########           Internal_energy_repulsive:            7.338192

@<TRIPOS>MOLECULE
ZINC000279974681
 42 45 1 0 0
SMALL
USER_CHARGES


@<TRIPOS>ATOM
      1 C1         -3.7999    4.4318   56.1247 C.3     1  ZINC000279974681   -0.1400
      2 C2         -4.2478    4.0368   54.7160 C.3     1  ZINC000279974681    0.0700
      3 H3         -4.5491    2.9892   54.7102 H       1  ZINC000279974681    0.0600
      4 C4         -3.0888    4.2418   53.7339 C.3     1  ZINC000279974681    0.1000
      5 N5         -3.5962    4.0365   52.3680 N.am    1  ZINC000279974681   -0.6300
      6 C6         -2.9656    3.2095   51.5106 C.2     1  ZINC000279974681    0.7100
      7 O7         -1.9619    2.6198   51.8619 O.2     1  ZINC000279974681   -0.5600
      8 N8         -3.4476    3.0361   50.2640 N.am    1  ZINC000279974681   -0.6700
      9 C9         -2.7915    2.1758   49.3723 C.ar    1  ZINC000279974681    0.2000
     10 C10        -3.1849    0.8490   49.2716 C.ar    1  ZINC000279974681   -0.1200
     11 C11        -2.5369   -0.0004   48.3901 C.ar    1  ZINC000279974681    0.0700
     12 C12        -1.4908    0.4791   47.6060 C.ar    1  ZINC000279974681    0.0200
     13 C13        -1.1000    1.8045   47.7093 C.ar    1  ZINC000279974681   -0.0700
     14 C14        -1.7511    2.6532   48.5851 C.ar    1  ZINC000279974681   -0.0700
     15 Cl15       -1.2587    4.3131   48.7119 Cl      1  ZINC000279974681   -0.0500
     16 O16        -1.0238   -0.5433   46.8294 O.3     1  ZINC000279974681   -0.3000
     17 C17        -1.5215   -1.7482   47.4405 C.3     1  ZINC000279974681    0.2100
     18 O18        -2.7256   -1.3223   48.1053 O.3     1  ZINC000279974681   -0.3000
     19 C19        -4.8126    4.7602   51.9659 C.3     1  ZINC000279974681    0.0800
     20 C20        -5.8876    4.5300   53.0342 C.3     1  ZINC000279974681    0.1100
     21 H21        -6.1955    3.4844   53.0214 H       1  ZINC000279974681    0.0700
     22 C22        -7.0962    5.4221   52.7436 C.3     1  ZINC000279974681   -0.1600
     23 C23        -8.4797    4.7696   52.7748 C.3     1  ZINC000279974681   -0.1700
     24 C24        -8.0536    5.7136   53.9009 C.3     1  ZINC000279974681   -0.1600
     25 O25        -5.3522    4.8535   54.3196 O.3     1  ZINC000279974681   -0.3600
     26 H26        -4.6250    4.2874   56.8222 H       1  ZINC000279974681    0.0700
     27 H27        -2.9568    3.8099   56.4257 H       1  ZINC000279974681    0.0800
     28 H28        -3.4988    5.4793   56.1299 H       1  ZINC000279974681    0.0700
     29 H29        -2.6992    5.2550   53.8323 H       1  ZINC000279974681    0.0800
     30 H30        -2.2980    3.5217   53.9439 H       1  ZINC000279974681    0.1100
     31 H31        -4.2483    3.5064   49.9839 H       1  ZINC000279974681    0.4100
     32 H32        -3.9962    0.4786   49.8808 H       1  ZINC000279974681    0.1800
     33 H33        -0.2885    2.1762   47.1013 H       1  ZINC000279974681    0.1500
     34 H34        -1.7473   -2.4973   46.6817 H       1  ZINC000279974681    0.1400
     35 H35        -0.8027   -2.1369   48.1619 H       1  ZINC000279974681    0.0900
     36 H36        -4.5965    5.8256   51.8862 H       1  ZINC000279974681    0.0900
     37 H37        -5.1632    4.3835   51.0050 H       1  ZINC000279974681    0.0900
     38 H38        -6.9301    6.2162   52.0156 H       1  ZINC000279974681    0.1100
     39 H39        -9.2242    5.1342   52.0671 H       1  ZINC000279974681    0.1000
     40 H40        -8.5290    3.7048   53.0024 H       1  ZINC000279974681    0.1000
     41 H41        -7.8224    5.2698   54.8693 H       1  ZINC000279974681    0.1000
     42 H42        -8.5177    6.6993   53.9341 H       1  ZINC000279974681    0.1000
@<TRIPOS>BOND
     1     1     2    1
     2     1    26    1
     3     1    27    1
     4     1    28    1
     5     2     3    1
     6     2    25    1
     7     2     4    1
     8     4     5    1
     9     4    29    1
    10     4    30    1
    11     5     6   am
    12     5    19    1
    13     6     7    2
    14     6     8   am
    15     8     9    1
    16     8    31    1
    17     9    14   ar
    18     9    10   ar
    19    10    11   ar
    20    10    32    1
    21    11    18    1
    22    11    12   ar
    23    12    13   ar
    24    12    16    1
    25    13    14   ar
    26    13    33    1
    27    14    15    1
    28    16    17    1
    29    17    18    1
    30    17    34    1
    31    17    35    1
    32    19    20    1
    33    19    36    1
    34    19    37    1
    35    20    21    1
    36    20    22    1
    37    20    25    1
    38    22    24    1
    39    22    23    1
    40    22    38    1
    41    23    24    1
    42    23    39    1
    43    23    40    1
    44    24    41    1
    45    24    42    1
@<TRIPOS>SUBSTRUCTURE
     1 ZINC000279974681        1 TEMP              0 ****  ****    0 ROOT


##########                                Name:    ZINC000192150625
##########                DOCK_Rotatable_Bonds:                   5
##########                         Heavy_Atoms:                  28
##########                    Molecular_Weight:             377.443
##########                DOCK_Rotatable_Bonds:                   5
##########                       Formal_Charge:           0.0199997
##########                     HBond_Acceptors:                   6
##########                        HBond_Donors:                   1
##########                         Heavy_Atoms:                  28
##########                          Grid_Score:          -27.143242
##########                     Grid_vdw_energy:          -25.056004
##########                      Grid_es_energy:           -2.087239
##########           Internal_energy_repulsive:           19.198589

@<TRIPOS>MOLECULE
ZINC000192150625
 51 54 1 0 0
SMALL
USER_CHARGES


@<TRIPOS>ATOM
      1 C1         -1.5449    0.9185   45.8216 C.3     1  ZINC000192150625   -0.0800
      2 C2         -1.5826    1.7391   47.0851 C.2     1  ZINC000192150625    0.0400
      3 C3         -2.1583    1.3547   48.2322 C.2     1  ZINC000192150625   -0.1800
      4 C4         -2.8724    0.0539   48.4950 C.3     1  ZINC000192150625   -0.0800
      5 C5         -1.9536    2.4554   49.1819 C.ar    1  ZINC000192150625   -0.1000
      6 C6         -2.3050    2.6697   50.5131 C.ar    1  ZINC000192150625   -0.0700
      7 C7         -1.9467    3.8553   51.1312 C.ar    1  ZINC000192150625    0.1200
      8 N8         -2.2948    4.0791   52.4674 N.am    1  ZINC000192150625   -0.6400
      9 C9         -1.3886    4.5923   53.3230 C.2     1  ZINC000192150625    0.5100
     10 O10        -0.2705    4.8603   52.9341 O.2     1  ZINC000192150625   -0.4900
     11 C11        -1.7603    4.8312   54.7496 C.2     1  ZINC000192150625    0.5100
     12 O12        -2.1510    5.9256   55.0998 O.2     1  ZINC000192150625   -0.5200
     13 N13        -1.6619    3.8315   55.6482 N.am    1  ZINC000192150625   -0.5800
     14 C14        -1.1848    2.5030   55.2407 C.3     1  ZINC000192150625    0.0500
     15 C15        -0.0201    2.0972   56.1492 C.3     1  ZINC000192150625   -0.1200
     16 C16        -0.4642    2.1845   57.6111 C.3     1  ZINC000192150625   -0.0500
     17 C17         0.6686    1.7533   58.5066 C.ar    1  ZINC000192150625   -0.0300
     18 C18         1.5868    2.6761   58.9836 C.ar    1  ZINC000192150625   -0.1700
     19 C19         2.6127    2.2438   59.8028 C.ar    1  ZINC000192150625    0.1000
     20 N20         2.7236    0.9713   60.1303 N.ar    1  ZINC000192150625   -0.4900
     21 C21         1.8688    0.0661   59.6952 C.ar    1  ZINC000192150625    0.1000
     22 C22         0.8141    0.4253   58.8775 C.ar    1  ZINC000192150625   -0.1700
     23 C23        -0.8553    3.6265   57.9420 C.3     1  ZINC000192150625   -0.1200
     24 C24        -2.0238    4.0512   57.0551 C.3     1  ZINC000192150625    0.1100
     25 C25        -1.2395    4.8261   50.4247 C.ar    1  ZINC000192150625   -0.1100
     26 C26        -0.8891    4.6202   49.1086 C.ar    1  ZINC000192150625   -0.0800
     27 C27        -1.2403    3.4362   48.4721 C.ar    1  ZINC000192150625    0.0500
     28 O28        -1.0383    2.9602   47.2259 O.3     1  ZINC000192150625   -0.1900
     29 H29        -1.0109    1.4687   45.0468 H       1  ZINC000192150625    0.0800
     30 H30        -1.0336   -0.0243   46.0158 H       1  ZINC000192150625    0.0900
     31 H31        -2.5631    0.7177   45.4883 H       1  ZINC000192150625    0.0900
     32 H32        -2.1588   -0.6849   48.8601 H       1  ZINC000192150625    0.0700
     33 H33        -3.6487    0.2103   49.2440 H       1  ZINC000192150625    0.0700
     34 H34        -3.3260   -0.3047   47.5710 H       1  ZINC000192150625    0.0700
     35 H35        -2.8535    1.9160   51.0587 H       1  ZINC000192150625    0.1400
     36 H36        -3.1883    3.8650   52.7783 H       1  ZINC000192150625    0.4300
     37 H37        -1.9936    1.7786   55.3379 H       1  ZINC000192150625    0.0700
     38 H38        -0.8457    2.5381   54.2054 H       1  ZINC000192150625    0.1600
     39 H39         0.2806    1.0747   55.9206 H       1  ZINC000192150625    0.0800
     40 H40         0.8216    2.7699   55.9839 H       1  ZINC000192150625    0.0700
     41 H41        -1.3216    1.5304   57.7697 H       1  ZINC000192150625    0.0900
     42 H42         1.5017    3.7196   58.7183 H       1  ZINC000192150625    0.1300
     43 H43         3.3320    2.9563   60.1786 H       1  ZINC000192150625    0.1600
     44 H44         1.9921   -0.9670   59.9846 H       1  ZINC000192150625    0.1600
     45 H45         0.1172   -0.3205   58.5247 H       1  ZINC000192150625    0.1300
     46 H46        -1.1493    3.6925   58.9896 H       1  ZINC000192150625    0.0800
     47 H47        -0.0058    4.2848   57.7600 H       1  ZINC000192150625    0.0700
     48 H48        -2.2408    5.1071   57.2173 H       1  ZINC000192150625    0.1000
     49 H49        -2.9027    3.4540   57.2978 H       1  ZINC000192150625    0.0800
     50 H50        -0.9638    5.7488   50.9136 H       1  ZINC000192150625    0.1400
     51 H51        -0.3410    5.3796   48.5710 H       1  ZINC000192150625    0.1400
@<TRIPOS>BOND
     1     1     2    1
     2     1    29    1
     3     1    30    1
     4     1    31    1
     5     2    28    1
     6     2     3    2
     7     3     4    1
     8     3     5    1
     9     4    32    1
    10     4    33    1
    11     4    34    1
    12     5    27   ar
    13     5     6   ar
    14     6     7   ar
    15     6    35    1
    16     7     8    1
    17     7    25   ar
    18     8     9   am
    19     8    36    1
    20     9    10    2
    21     9    11    1
    22    11    12    2
    23    11    13   am
    24    13    24    1
    25    13    14    1
    26    14    15    1
    27    14    37    1
    28    14    38    1
    29    15    16    1
    30    15    39    1
    31    15    40    1
    32    16    17    1
    33    16    23    1
    34    16    41    1
    35    17    22   ar
    36    17    18   ar
    37    18    19   ar
    38    18    42    1
    39    19    20   ar
    40    19    43    1
    41    20    21   ar
    42    21    22   ar
    43    21    44    1
    44    22    45    1
    45    23    24    1
    46    23    46    1
    47    23    47    1
    48    24    48    1
    49    24    49    1
    50    25    26   ar
    51    25    50    1
    52    26    27   ar
    53    26    51    1
    54    27    28    1
@<TRIPOS>SUBSTRUCTURE
     1 ZINC000192150625        1 TEMP              0 ****  ****    0 ROOT


##########                                Name:    ZINC000965273005
##########                DOCK_Rotatable_Bonds:                   7
##########                         Heavy_Atoms:                  27
##########                    Molecular_Weight:             368.436
##########                DOCK_Rotatable_Bonds:                   7
##########                       Formal_Charge:           0.0100003
##########                     HBond_Acceptors:                   7
##########                        HBond_Donors:                   2
##########                         Heavy_Atoms:                  27
##########                          Grid_Score:          -27.132046
##########                     Grid_vdw_energy:          -25.948725
##########                      Grid_es_energy:           -1.183322
##########           Internal_energy_repulsive:           10.576928

@<TRIPOS>MOLECULE
ZINC000965273005
 51 54 1 0 0
SMALL
USER_CHARGES


@<TRIPOS>ATOM
      1 C1        -11.0995    1.8675   54.8102 C.3     1  ZINC000965273005   -0.1200
      2 C2        -10.7238    0.9218   53.6988 C.ar    1  ZINC000965273005   -0.0300
      3 C3         -9.4849    1.0168   53.0995 C.ar    1  ZINC000965273005   -0.1200
      4 C4         -9.1384    0.1492   52.0787 C.ar    1  ZINC000965273005   -0.0900
      5 C5        -10.0302   -0.8187   51.6527 C.ar    1  ZINC000965273005   -0.1300
      6 C6        -11.2725   -0.9246   52.2436 C.ar    1  ZINC000965273005   -0.0900
      7 C7        -11.6263   -0.0561   53.2772 C.ar    1  ZINC000965273005   -0.1300
      8 C8        -12.9559   -0.1637   53.9149 C.2     1  ZINC000965273005    0.5800
      9 O9        -13.7937    0.6955   53.7222 O.2     1  ZINC000965273005   -0.5200
     10 N10       -13.2388   -1.2146   54.7099 N.am    1  ZINC000965273005   -0.6100
     11 C11       -12.3182   -2.3198   55.0332 C.3     1  ZINC000965273005    0.0900
     12 C12       -12.8306   -2.8808   56.3831 C.3     1  ZINC000965273005    0.1500
     13 H13       -12.5373   -3.9230   56.5096 H       1  ZINC000965273005    0.1200
     14 N14       -12.3574   -2.0652   57.5043 N.am    1  ZINC000965273005   -0.7100
     15 C15       -12.0993   -2.6415   58.6950 C.2     1  ZINC000965273005    0.6000
     16 O16       -12.2608   -3.8382   58.8391 O.2     1  ZINC000965273005   -0.5400
     17 C17       -11.6215   -1.8210   59.8229 C.2     1  ZINC000965273005   -0.2800
     18 C18       -10.3435   -1.8100   60.3445 C.2     1  ZINC000965273005    0.1000
     19 N19       -10.3304   -0.9286   61.3572 N.pl3   1  ZINC000965273005   -0.3600
     20 C20        -9.1720   -0.6011   62.1920 C.3     1  ZINC000965273005    0.1000
     21 N21       -11.6096   -0.3750   61.4803 N.2     1  ZINC000965273005   -0.3000
     22 C22       -12.3844   -0.8944   60.5684 C.2     1  ZINC000965273005    0.1700
     23 C23       -13.8405   -0.5707   60.3543 C.3     1  ZINC000965273005   -0.0800
     24 C24       -14.8605   -1.6703   60.6566 C.3     1  ZINC000965273005   -0.1700
     25 C25       -14.7311   -0.4682   61.5941 C.3     1  ZINC000965273005   -0.1600
     26 C26       -14.3672   -2.7525   56.2105 C.3     1  ZINC000965273005    0.0900
     27 H27       -14.7649   -3.6008   55.6533 H       1  ZINC000965273005    0.0900
     28 O28       -15.0109   -2.6381   57.4812 O.3     1  ZINC000965273005   -0.5500
     29 C29       -14.5143   -1.4454   55.4036 C.3     1  ZINC000965273005    0.0600
     30 H30       -10.8901    1.3993   55.7720 H       1  ZINC000965273005    0.0800
     31 H31       -10.5184    2.7851   54.7186 H       1  ZINC000965273005    0.0700
     32 H32       -12.1619    2.1022   54.7440 H       1  ZINC000965273005    0.0700
     33 H33        -8.7842    1.7703   53.4276 H       1  ZINC000965273005    0.1300
     34 H34        -8.1675    0.2283   51.6125 H       1  ZINC000965273005    0.1300
     35 H35        -9.7535   -1.4928   50.8555 H       1  ZINC000965273005    0.1300
     36 H36       -11.9680   -1.6804   51.9098 H       1  ZINC000965273005    0.1300
     37 H37       -12.3623   -3.0884   54.2616 H       1  ZINC000965273005    0.0900
     38 H38       -11.2997   -1.9462   55.1398 H       1  ZINC000965273005    0.0900
     39 H39       -12.2298   -1.1105   57.3897 H       1  ZINC000965273005    0.4000
     40 H40        -9.5079   -2.4020   60.0015 H       1  ZINC000965273005    0.1800
     41 H41        -8.6243    0.2283   61.7445 H       1  ZINC000965273005    0.0800
     42 H42        -9.5108   -0.3172   63.1884 H       1  ZINC000965273005    0.1000
     43 H43        -8.5189   -1.4708   62.2645 H       1  ZINC000965273005    0.0900
     44 H44       -14.0556    0.1010   59.5232 H       1  ZINC000965273005    0.1400
     45 H45       -15.7469   -1.7224   60.0243 H       1  ZINC000965273005    0.1000
     46 H46       -14.4783   -2.6279   61.0104 H       1  ZINC000965273005    0.1000
     47 H47       -14.2638   -0.6348   62.5646 H       1  ZINC000965273005    0.0900
     48 H48       -15.5323    0.2707   61.5785 H       1  ZINC000965273005    0.1000
     49 H49       -15.6250   -3.3588   57.6773 H       1  ZINC000965273005    0.3900
     50 H50       -14.7309   -0.6163   56.0772 H       1  ZINC000965273005    0.0800
     51 H51       -15.3151   -1.5499   54.6714 H       1  ZINC000965273005    0.0800
@<TRIPOS>BOND
     1     1     2    1
     2     1    30    1
     3     1    31    1
     4     1    32    1
     5     2     7   ar
     6     2     3   ar
     7     3     4   ar
     8     3    33    1
     9     4     5   ar
    10     4    34    1
    11     5     6   ar
    12     5    35    1
    13     6     7   ar
    14     6    36    1
    15     7     8    1
    16     8     9    2
    17     8    10   am
    18    10    29    1
    19    10    11    1
    20    11    12    1
    21    11    37    1
    22    11    38    1
    23    12    13    1
    24    12    14    1
    25    12    26    1
    26    14    15   am
    27    14    39    1
    28    15    16    2
    29    15    17    1
    30    17    22    1
    31    17    18    2
    32    18    19    1
    33    18    40    1
    34    19    20    1
    35    19    21    1
    36    20    41    1
    37    20    42    1
    38    20    43    1
    39    21    22    2
    40    22    23    1
    41    23    25    1
    42    23    24    1
    43    23    44    1
    44    24    25    1
    45    24    45    1
    46    24    46    1
    47    25    47    1
    48    25    48    1
    49    26    27    1
    50    26    28    1
    51    26    29    1
    52    28    49    1
    53    29    50    1
    54    29    51    1
@<TRIPOS>SUBSTRUCTURE
     1 ZINC000965273005        1 TEMP              0 ****  ****    0 ROOT


##########                                Name:    ZINC001018118384
##########                DOCK_Rotatable_Bonds:                   5
##########                         Heavy_Atoms:                  25
##########                    Molecular_Weight:             347.374
##########                DOCK_Rotatable_Bonds:                   5
##########                       Formal_Charge:           0.0299997
##########                     HBond_Acceptors:                   9
##########                        HBond_Donors:                   2
##########                         Heavy_Atoms:                  25
##########                          Grid_Score:          -27.064735
##########                     Grid_vdw_energy:          -27.128145
##########                      Grid_es_energy:            0.063409
##########           Internal_energy_repulsive:           98.716698

@<TRIPOS>MOLECULE
ZINC001018118384
 46 48 1 0 0
SMALL
USER_CHARGES


@<TRIPOS>ATOM
      1 C1          2.1840    5.2657   42.9422 C.3     1  ZINC001018118384   -0.0700
      2 C2          1.5531    3.9051   43.0900 C.2     1  ZINC001018118384    0.2200
      3 N3          0.7398    3.5483   44.0416 N.2     1  ZINC001018118384   -0.4600
      4 C4          0.3774    2.2545   43.8474 C.2     1  ZINC001018118384   -0.0700
      5 C5         -0.5315    1.4674   44.6987 C.2     1  ZINC001018118384    0.6100
      6 O6         -1.6494    1.1942   44.3050 O.2     1  ZINC001018118384   -0.5400
      7 N7         -0.1244    1.0503   45.9139 N.am    1  ZINC001018118384   -0.5900
      8 C8          1.2208    1.3777   46.4059 C.3     1  ZINC001018118384    0.0700
      9 C9          1.0946    2.0473   47.7779 C.3     1  ZINC001018118384    0.1300
     10 H10         2.0880    2.2083   48.1968 H       1  ZINC001018118384    0.1100
     11 N11         0.4107    3.3347   47.6327 N.am    1  ZINC001018118384   -0.7000
     12 C12         1.1094    4.4336   47.2854 C.2     1  ZINC001018118384    0.6000
     13 O13         2.3068    4.3569   47.0943 O.2     1  ZINC001018118384   -0.4900
     14 C14         0.4172    5.7356   47.1368 C.2     1  ZINC001018118384    0.0300
     15 C15         0.9915    6.9216   46.7878 C.2     1  ZINC001018118384   -0.2300
     16 C16        -0.0935    7.8428   46.7872 C.2     1  ZINC001018118384    0.4800
     17 O17        -0.0480    9.0343   46.5298 O.2     1  ZINC001018118384   -0.5200
     18 N18        -1.1822    7.1248   47.1292 N.am    1  ZINC001018118384   -0.4500
     19 C19        -2.5349    7.6737   47.2527 C.3     1  ZINC001018118384    0.1100
     20 O20        -0.8926    5.9655   47.3148 O.3     1  ZINC001018118384    0.0000
     21 C21         0.2874    1.1416   48.7108 C.3     1  ZINC001018118384   -0.1300
     22 C22        -1.1183    0.9416   48.1398 C.3     1  ZINC001018118384   -0.1300
     23 C23        -1.0194    0.2647   46.7744 C.3     1  ZINC001018118384    0.1400
     24 H24        -0.6136   -0.7400   46.8932 H       1  ZINC001018118384    0.0700
     25 C25        -2.4093    0.1846   46.1397 C.3     1  ZINC001018118384   -0.1400
     26 C26         1.0081    1.8159   42.7199 C.2     1  ZINC001018118384    0.0400
     27 N27         1.7369    2.8548   42.2481 N.pl3   1  ZINC001018118384   -0.5600
     28 H28         1.5342    5.9044   42.3439 H       1  ZINC001018118384    0.0900
     29 H29         2.3233    5.7105   43.9275 H       1  ZINC001018118384    0.1000
     30 H30         3.1505    5.1663   42.4483 H       1  ZINC001018118384    0.0800
     31 H31         1.8087    0.4644   46.4976 H       1  ZINC001018118384    0.0800
     32 H32         1.7084    2.0601   45.7097 H       1  ZINC001018118384    0.1500
     33 H33        -0.5451    3.3962   47.7864 H       1  ZINC001018118384    0.4100
     34 H34         2.0298    7.1171   46.5641 H       1  ZINC001018118384    0.1900
     35 H35        -3.0450    7.6024   46.2921 H       1  ZINC001018118384    0.0800
     36 H36        -3.0895    7.1081   48.0015 H       1  ZINC001018118384    0.0900
     37 H37        -2.4765    8.7188   47.5565 H       1  ZINC001018118384    0.1100
     38 H38         0.7845    0.1756   48.7987 H       1  ZINC001018118384    0.0900
     39 H39         0.2171    1.6046   49.6951 H       1  ZINC001018118384    0.0800
     40 H40        -1.7002    0.3156   48.8164 H       1  ZINC001018118384    0.0800
     41 H41        -1.6069    1.9095   48.0285 H       1  ZINC001018118384    0.0600
     42 H42        -2.8194    1.1892   46.0355 H       1  ZINC001018118384    0.0700
     43 H43        -2.3336   -0.2807   45.1569 H       1  ZINC001018118384    0.0800
     44 H44        -3.0649   -0.4115   46.7744 H       1  ZINC001018118384    0.0400
     45 H45         0.9361    0.8302   42.2845 H       1  ZINC001018118384    0.1900
     46 H46         2.2953    2.8482   41.4551 H       1  ZINC001018118384    0.4300
@<TRIPOS>BOND
     1     1     2    1
     2     1    28    1
     3     1    29    1
     4     1    30    1
     5     2    27    1
     6     2     3    2
     7     3     4    1
     8     4     5    1
     9     4    26    2
    10     5     6    2
    11     5     7   am
    12     7    23    1
    13     7     8    1
    14     8     9    1
    15     8    31    1
    16     8    32    1
    17     9    10    1
    18     9    11    1
    19     9    21    1
    20    11    12   am
    21    11    33    1
    22    12    13    2
    23    12    14    1
    24    14    20    1
    25    14    15    2
    26    15    16    1
    27    15    34    1
    28    16    17    2
    29    16    18   am
    30    18    19    1
    31    18    20    1
    32    19    35    1
    33    19    36    1
    34    19    37    1
    35    21    22    1
    36    21    38    1
    37    21    39    1
    38    22    23    1
    39    22    40    1
    40    22    41    1
    41    23    24    1
    42    23    25    1
    43    25    42    1
    44    25    43    1
    45    25    44    1
    46    26    27    1
    47    26    45    1
    48    27    46    1
@<TRIPOS>SUBSTRUCTURE
     1 ZINC001018118384        1 TEMP              0 ****  ****    0 ROOT


##########                                Name:    ZINC000426037318
##########                DOCK_Rotatable_Bonds:                   7
##########                         Heavy_Atoms:                  28
##########                    Molecular_Weight:             421.904
##########                DOCK_Rotatable_Bonds:                   7
##########                       Formal_Charge:         -0.00999981
##########                     HBond_Acceptors:                   9
##########                        HBond_Donors:                   1
##########                         Heavy_Atoms:                  28
##########                          Grid_Score:          -27.049845
##########                     Grid_vdw_energy:          -26.268770
##########                      Grid_es_energy:           -0.781074
##########           Internal_energy_repulsive:          173.119171

@<TRIPOS>MOLECULE
ZINC000426037318
 48 50 1 0 0
SMALL
USER_CHARGES


@<TRIPOS>ATOM
      1 C1          2.4356    1.1467   40.9726 C.3     1  ZINC000426037318    0.0300
      2 O2          1.8346    1.2454   42.2652 O.3     1  ZINC000426037318   -0.3800
      3 C3          1.1346    2.4710   42.4888 C.3     1  ZINC000426037318    0.1300
      4 C4          0.5534    2.4712   43.8791 C.ar    1  ZINC000426037318    0.3900
      5 N5         -0.1924    1.4495   44.2598 N.ar    1  ZINC000426037318   -0.5700
      6 C6         -0.7256    1.4002   45.4688 C.ar    1  ZINC000426037318    0.4400
      7 O7         -1.4867    0.3450   45.8415 O.3     1  ZINC000426037318   -0.2800
      8 C8         -2.4631   -0.1138   44.9044 C.3     1  ZINC000426037318    0.0300
      9 C9         -0.4870    2.4719   46.3709 C.ar    1  ZINC000426037318   -0.2000
     10 C10        -0.9301    2.6565   47.6857 C.2     1  ZINC000426037318    0.0500
     11 C11        -1.8021    1.6488   48.3893 C.3     1  ZINC000426037318   -0.1200
     12 C12        -0.5269    3.7882   48.2762 C.2     1  ZINC000426037318   -0.2700
     13 C13        -0.8722    4.1834   49.6474 C.2     1  ZINC000426037318    0.6000
     14 O14        -0.4440    3.5448   50.5907 O.2     1  ZINC000426037318   -0.5000
     15 N15        -1.6632    5.2533   49.8614 N.am    1  ZINC000426037318   -0.6600
     16 C16        -1.9927    5.6303   51.1697 C.ar    1  ZINC000426037318    0.1200
     17 C17        -1.5001    4.9057   52.2461 C.ar    1  ZINC000426037318   -0.0700
     18 C18        -1.8249    5.2783   53.5360 C.ar    1  ZINC000426037318   -0.0900
     19 C19        -1.2895    4.4916   54.7046 C.3     1  ZINC000426037318   -0.1100
     20 C20        -2.6433    6.3762   53.7562 C.ar    1  ZINC000426037318    0.1300
     21 O21        -2.9620    6.7422   55.0264 O.3     1  ZINC000426037318   -0.3100
     22 C22        -3.8097    7.8823   55.1797 C.3     1  ZINC000426037318    0.0200
     23 C23        -3.1366    7.1017   52.6814 C.ar    1  ZINC000426037318   -0.1800
     24 C24        -2.8085    6.7337   51.3908 C.ar    1  ZINC000426037318   -0.0300
     25 Cl25       -3.4251    7.6415   50.0456 Cl      1  ZINC000426037318   -0.0600
     26 S26         0.4718    4.7345   47.1861 S.3     1  ZINC000426037318    0.2200
     27 C27         0.3116    3.5306   45.9145 C.ar    1  ZINC000426037318    0.1300
     28 N28         0.8094    3.4846   44.6741 N.ar    1  ZINC000426037318   -0.5000
     29 H29         2.9471    0.1884   40.8819 H       1  ZINC000426037318    0.0900
     30 H30         1.6637    1.2205   40.2065 H       1  ZINC000426037318    0.0500
     31 H31         3.1544    1.9560   40.8432 H       1  ZINC000426037318    0.0500
     32 H32         1.8247    3.3081   42.3832 H       1  ZINC000426037318    0.0900
     33 H33         0.3308    2.5686   41.7590 H       1  ZINC000426037318    0.0800
     34 H34        -1.9670   -0.4212   43.9839 H       1  ZINC000426037318    0.0700
     35 H35        -3.0022   -0.9616   45.3271 H       1  ZINC000426037318    0.1100
     36 H36        -3.1650    0.6914   44.6874 H       1  ZINC000426037318    0.0700
     37 H37        -1.1743    0.9250   48.9090 H       1  ZINC000426037318    0.0900
     38 H38        -2.4396    2.1605   49.1103 H       1  ZINC000426037318    0.1000
     39 H39        -2.4231    1.1320   47.6577 H       1  ZINC000426037318    0.0800
     40 H40        -2.0044    5.7624   49.1095 H       1  ZINC000426037318    0.4100
     41 H41        -0.8631    4.0504   52.0753 H       1  ZINC000426037318    0.1600
     42 H42        -0.3340    4.9120   55.0183 H       1  ZINC000426037318    0.0700
     43 H43        -1.9978    4.5421   55.5316 H       1  ZINC000426037318    0.0700
     44 H44        -1.1495    3.4518   54.4090 H       1  ZINC000426037318    0.0700
     45 H45        -3.3297    8.7543   54.7355 H       1  ZINC000426037318    0.0600
     46 H46        -4.7610    7.6976   54.6809 H       1  ZINC000426037318    0.0600
     47 H47        -3.9850    8.0648   56.2400 H       1  ZINC000426037318    0.1000
     48 H48        -3.7738    7.9565   52.8538 H       1  ZINC000426037318    0.1500
@<TRIPOS>BOND
     1     1     2    1
     2     1    29    1
     3     1    30    1
     4     1    31    1
     5     2     3    1
     6     3     4    1
     7     3    32    1
     8     3    33    1
     9     4    28   ar
    10     4     5   ar
    11     5     6   ar
    12     6     7    1
    13     6     9   ar
    14     7     8    1
    15     8    34    1
    16     8    35    1
    17     8    36    1
    18     9    27   ar
    19     9    10    1
    20    10    11    1
    21    10    12    2
    22    11    37    1
    23    11    38    1
    24    11    39    1
    25    12    13    1
    26    12    26    1
    27    13    14    2
    28    13    15   am
    29    15    16    1
    30    15    40    1
    31    16    24   ar
    32    16    17   ar
    33    17    18   ar
    34    17    41    1
    35    18    19    1
    36    18    20   ar
    37    19    42    1
    38    19    43    1
    39    19    44    1
    40    20    21    1
    41    20    23   ar
    42    21    22    1
    43    22    45    1
    44    22    46    1
    45    22    47    1
    46    23    24   ar
    47    23    48    1
    48    24    25    1
    49    26    27    1
    50    27    28   ar
@<TRIPOS>SUBSTRUCTURE
     1 ZINC000426037318        1 TEMP              0 ****  ****    0 ROOT


##########                                Name:    ZINC000326056918
##########                DOCK_Rotatable_Bonds:                   6
##########                         Heavy_Atoms:                  24
##########                    Molecular_Weight:             408.326
##########                DOCK_Rotatable_Bonds:                   6
##########                       Formal_Charge:         -0.00999978
##########                     HBond_Acceptors:                   9
##########                        HBond_Donors:                   0
##########                         Heavy_Atoms:                  24
##########                          Grid_Score:          -27.000824
##########                     Grid_vdw_energy:          -26.437555
##########                      Grid_es_energy:           -0.563268
##########           Internal_energy_repulsive:           24.152758

@<TRIPOS>MOLECULE
ZINC000326056918
 39 40 1 0 0
SMALL
USER_CHARGES


@<TRIPOS>ATOM
      1 C1          1.7191    5.9786   43.7274 C.3     1  ZINC000326056918    0.0400
      2 O2          0.5708    5.8957   44.6121 O.3     1  ZINC000326056918   -0.3500
      3 C3          0.3962    6.9089   45.4854 C.2     1  ZINC000326056918    0.5000
      4 O4          1.1824    7.8367   45.5056 O.2     1  ZINC000326056918   -0.4300
      5 C5         -0.7396    6.8917   46.4090 C.2     1  ZINC000326056918   -0.1600
      6 C6         -0.7129    6.4158   47.6907 C.2     1  ZINC000326056918   -0.6200
      7 S7          0.7287    5.7355   48.4416 S.o2    1  ZINC000326056918    2.6900
      8 O8          1.8019    5.9773   47.5421 O.2     1  ZINC000326056918   -0.9100
      9 O9          0.7286    6.1842   49.7899 O.2     1  ZINC000326056918   -0.9400
     10 N10         0.5247    4.0929   48.4953 N.am    1  ZINC000326056918   -0.9900
     11 C11         0.5302    3.3959   49.7838 C.3     1  ZINC000326056918    0.0900
     12 C12         0.3387    3.3369   47.2543 C.3     1  ZINC000326056918    0.1500
     13 C13        -0.0953    1.9316   47.5824 C.ar    1  ZINC000326056918   -0.0900
     14 C14        -1.4217    1.6667   47.8659 C.ar    1  ZINC000326056918   -0.0800
     15 C15        -1.8206    0.3779   48.1675 C.ar    1  ZINC000326056918   -0.1100
     16 C16        -0.8921   -0.6475   48.1854 C.ar    1  ZINC000326056918   -0.0200
     17 Cl17       -1.3933   -2.2660   48.5635 Cl      1  ZINC000326056918   -0.0600
     18 C18         0.4358   -0.3830   47.9011 C.ar    1  ZINC000326056918   -0.1100
     19 C19         0.8333    0.9057   47.5943 C.ar    1  ZINC000326056918   -0.0300
     20 Cl20        2.4993    1.2386   47.2371 Cl      1  ZINC000326056918   -0.0100
     21 C21        -1.9220    6.5219   48.3350 C.2     1  ZINC000326056918   -0.0400
     22 C22        -2.1243    6.0606   49.7553 C.3     1  ZINC000326056918   -0.1100
     23 C23        -2.9067    7.0651   47.6090 C.2     1  ZINC000326056918   -0.2600
     24 S24        -2.3550    7.4866   46.0505 S.3     1  ZINC000326056918    0.3100
     25 H25         1.7416    5.1032   43.0783 H       1  ZINC000326056918    0.1100
     26 H26         1.6448    6.8800   43.1191 H       1  ZINC000326056918    0.0700
     27 H27         2.6329    6.0147   44.3205 H       1  ZINC000326056918    0.0700
     28 H28        -0.4682    3.4304   50.2199 H       1  ZINC000326056918    0.0600
     29 H29         0.8255    2.3575   49.6339 H       1  ZINC000326056918    0.0700
     30 H30         1.2374    3.8813   50.4565 H       1  ZINC000326056918    0.0900
     31 H31        -0.4254    3.8202   46.6454 H       1  ZINC000326056918    0.1100
     32 H32         1.2782    3.3076   46.7024 H       1  ZINC000326056918    0.0900
     33 H33        -2.1469    2.4669   47.8522 H       1  ZINC000326056918    0.1400
     34 H34        -2.8572    0.1715   48.3897 H       1  ZINC000326056918    0.1400
     35 H35         1.1610   -1.1832   47.9148 H       1  ZINC000326056918    0.1500
     36 H36        -1.7977    6.8423   50.4412 H       1  ZINC000326056918    0.0900
     37 H37        -3.1807    5.8494   49.9216 H       1  ZINC000326056918    0.0700
     38 H38        -1.5411    5.1566   49.9304 H       1  ZINC000326056918    0.0900
     39 H39        -3.9149    7.2196   47.9639 H       1  ZINC000326056918    0.1800
@<TRIPOS>BOND
     1     1     2    1
     2     1    25    1
     3     1    26    1
     4     1    27    1
     5     2     3    1
     6     3     4    2
     7     3     5    1
     8     5    24    1
     9     5     6    2
    10     6     7    1
    11     6    21    1
    12     7     8    2
    13     7     9    2
    14     7    10   am
    15    10    11    1
    16    10    12    1
    17    11    28    1
    18    11    29    1
    19    11    30    1
    20    12    13    1
    21    12    31    1
    22    12    32    1
    23    13    19   ar
    24    13    14   ar
    25    14    15   ar
    26    14    33    1
    27    15    16   ar
    28    15    34    1
    29    16    17    1
    30    16    18   ar
    31    18    19   ar
    32    18    35    1
    33    19    20    1
    34    21    22    1
    35    21    23    2
    36    22    36    1
    37    22    37    1
    38    22    38    1
    39    23    24    1
    40    23    39    1
@<TRIPOS>SUBSTRUCTURE
     1 ZINC000326056918        1 TEMP              0 ****  ****    0 ROOT


##########                                Name:    ZINC000277085192
##########                DOCK_Rotatable_Bonds:                   4
##########                         Heavy_Atoms:                  23
##########                    Molecular_Weight:             335.747
##########                DOCK_Rotatable_Bonds:                   4
##########                       Formal_Charge:         5.96046e-08
##########                     HBond_Acceptors:                   8
##########                        HBond_Donors:                   2
##########                         Heavy_Atoms:                  23
##########                          Grid_Score:          -26.952663
##########                     Grid_vdw_energy:          -24.254969
##########                      Grid_es_energy:           -2.697694
##########           Internal_energy_repulsive:            4.343515

@<TRIPOS>MOLECULE
ZINC000277085192
 37 39 1 0 0
SMALL
USER_CHARGES


@<TRIPOS>ATOM
      1 O1         -0.5905    3.3873   52.0598 O.2     1  ZINC000277085192   -0.5000
      2 C2         -1.5494    4.1272   52.1253 C.2     1  ZINC000277085192    0.5000
      3 C3         -1.8448    4.8664   53.4049 C.3     1  ZINC000277085192    0.1100
      4 N4         -2.6824    4.0311   54.2691 N.am    1  ZINC000277085192   -0.6000
      5 C5         -2.0501    3.1035   55.2089 C.3     1  ZINC000277085192    0.1100
      6 C6         -2.8758    3.0373   56.4958 C.3     1  ZINC000277085192   -0.1600
      7 C7         -4.3330    2.8774   56.1419 C.2     1  ZINC000277085192    0.5200
      8 O8         -5.0610    2.2185   56.8531 O.2     1  ZINC000277085192   -0.5000
      9 N9         -4.8249    3.4668   55.0368 N.am    1  ZINC000277085192   -0.6700
     10 C10        -4.0195    4.1311   54.1921 C.2     1  ZINC000277085192    0.7200
     11 O11        -4.5124    4.8332   53.3312 O.2     1  ZINC000277085192   -0.5500
     12 N12        -2.3474    4.2926   51.0519 N.am    1  ZINC000277085192   -0.6700
     13 C13        -2.0730    3.6059   49.8630 C.ar    1  ZINC000277085192    0.1400
     14 C14        -2.5009    2.3009   49.7040 C.ar    1  ZINC000277085192   -0.0400
     15 C15        -2.2257    1.6118   48.5126 C.ar    1  ZINC000277085192   -0.1700
     16 C16        -1.5194    2.2555   47.4960 C.ar    1  ZINC000277085192   -0.0500
     17 C17        -1.0971    3.5606   47.6664 C.ar    1  ZINC000277085192   -0.0900
     18 C18        -1.3744    4.2388   48.8391 C.ar    1  ZINC000277085192   -0.0300
     19 Cl19       -0.8381    5.8776   49.0401 Cl      1  ZINC000277085192   -0.0500
     20 C20        -1.3495    1.3168   46.3252 C.3     1  ZINC000277085192   -0.0800
     21 C21        -2.0335    0.0021   46.7242 C.3     1  ZINC000277085192   -0.1700
     22 C22        -2.5718    0.2378   48.1144 C.2     1  ZINC000277085192    0.4100
     23 O23        -3.1836   -0.5652   48.7864 O.2     1  ZINC000277085192   -0.4300
     24 H24        -0.9099    5.0954   53.9164 H       1  ZINC000277085192    0.1300
     25 H25        -2.3703    5.7936   53.1759 H       1  ZINC000277085192    0.1200
     26 H26        -1.9971    2.1117   54.7600 H       1  ZINC000277085192    0.0800
     27 H27        -1.0434    3.4513   55.4407 H       1  ZINC000277085192    0.1000
     28 H28        -2.5507    2.1859   57.0937 H       1  ZINC000277085192    0.1300
     29 H29        -2.7380    3.9568   57.0646 H       1  ZINC000277085192    0.1200
     30 H30        -5.7752    3.4139   54.8498 H       1  ZINC000277085192    0.4300
     31 H31        -3.1120    4.8873   51.1030 H       1  ZINC000277085192    0.4200
     32 H32        -3.0469    1.8115   50.4969 H       1  ZINC000277085192    0.1500
     33 H33        -0.5505    4.0550   46.8770 H       1  ZINC000277085192    0.1500
     34 H34        -1.8278    1.7336   45.4388 H       1  ZINC000277085192    0.1000
     35 H35        -0.2903    1.1449   46.1340 H       1  ZINC000277085192    0.1000
     36 H36        -2.8488   -0.2232   46.0367 H       1  ZINC000277085192    0.1100
     37 H37        -1.3095   -0.8127   46.7327 H       1  ZINC000277085192    0.1100
@<TRIPOS>BOND
     1     1     2    2
     2     2     3    1
     3     2    12   am
     4     3     4    1
     5     3    24    1
     6     3    25    1
     7     4    10   am
     8     4     5    1
     9     5     6    1
    10     5    26    1
    11     5    27    1
    12     6     7    1
    13     6    28    1
    14     6    29    1
    15     7     8    2
    16     7     9   am
    17     9    10   am
    18     9    30    1
    19    10    11    2
    20    12    13    1
    21    12    31    1
    22    13    18   ar
    23    13    14   ar
    24    14    15   ar
    25    14    32    1
    26    15    22    1
    27    15    16   ar
    28    16    17   ar
    29    16    20    1
    30    17    18   ar
    31    17    33    1
    32    18    19    1
    33    20    21    1
    34    20    34    1
    35    20    35    1
    36    21    22    1
    37    21    36    1
    38    21    37    1
    39    22    23    2
@<TRIPOS>SUBSTRUCTURE
     1 ZINC000277085192        1 TEMP              0 ****  ****    0 ROOT


##########                                Name:    ZINC001045463759
##########                DOCK_Rotatable_Bonds:                   6
##########                         Heavy_Atoms:                  24
##########                    Molecular_Weight:             336.385
##########                DOCK_Rotatable_Bonds:                   6
##########                       Formal_Charge:          1.3411e-07
##########                     HBond_Acceptors:                   7
##########                        HBond_Donors:                   2
##########                         Heavy_Atoms:                  24
##########                          Grid_Score:          -26.904295
##########                     Grid_vdw_energy:          -26.613794
##########                      Grid_es_energy:           -0.290501
##########           Internal_energy_repulsive:           10.611201

@<TRIPOS>MOLECULE
ZINC001045463759
 46 49 1 0 0
SMALL
USER_CHARGES


@<TRIPOS>ATOM
      1 O1         -0.2689    5.2828   53.3470 O.2     1  ZINC001045463759   -0.5100
      2 C2         -0.4839    4.1549   53.7377 C.2     1  ZINC001045463759    0.5400
      3 N3         -1.7332    3.6517   53.6891 N.am    1  ZINC001045463759   -0.7200
      4 C4         -2.8326    4.4692   53.1701 C.3     1  ZINC001045463759    0.1400
      5 H5         -2.5425    5.5198   53.1850 H       1  ZINC001045463759    0.1000
      6 C6         -4.0727    4.2701   54.0438 C.3     1  ZINC001045463759   -0.1300
      7 C7         -5.2209    5.1239   53.5018 C.3     1  ZINC001045463759   -0.1200
      8 C8         -5.5359    4.7021   52.0652 C.3     1  ZINC001045463759   -0.1200
      9 C9         -4.2958    4.9012   51.1916 C.3     1  ZINC001045463759   -0.1300
     10 C10        -3.1477    4.0475   51.7336 C.3     1  ZINC001045463759    0.1500
     11 H11        -3.4378    2.9969   51.7187 H       1  ZINC001045463759    0.0900
     12 N12        -1.9603    4.2381   50.8970 N.pl3   1  ZINC001045463759   -0.7100
     13 C13        -1.7879    3.4737   49.7545 C.ar    1  ZINC001045463759    0.4400
     14 C14        -1.1314    4.0010   48.6407 C.ar    1  ZINC001045463759   -0.3000
     15 C15        -0.9847    3.1992   47.5258 C.ar    1  ZINC001045463759    0.1800
     16 N16        -1.4677    1.9650   47.5488 N.ar    1  ZINC001045463759   -0.5600
     17 C17        -2.0827    1.4964   48.6160 C.ar    1  ZINC001045463759    0.4000
     18 C18        -2.6151    0.0867   48.5949 C.3     1  ZINC001045463759   -0.1100
     19 C19        -2.3614   -0.7454   47.3363 C.3     1  ZINC001045463759   -0.1500
     20 C20        -1.5957   -1.0539   48.6245 C.3     1  ZINC001045463759   -0.1500
     21 N21        -2.2401    2.2241   49.7030 N.ar    1  ZINC001045463759   -0.5700
     22 C22         0.6469    3.3139   54.2716 C.3     1  ZINC001045463759   -0.2000
     23 H23         1.3858    2.9978   53.5352 H       1  ZINC001045463759    0.1500
     24 C24         1.1439    3.6147   55.6870 C.3     1  ZINC001045463759   -0.1500
     25 C25         0.3300    2.3472   55.4144 C.3     1  ZINC001045463759    0.2300
     26 F26        -0.9873    2.3121   55.8841 F       1  ZINC001045463759   -0.1400
     27 F27         1.0110    1.1254   55.4347 F       1  ZINC001045463759   -0.1500
     28 H28        -1.9046    2.7482   53.9979 H       1  ZINC001045463759    0.4000
     29 H29        -4.3628    3.2196   54.0289 H       1  ZINC001045463759    0.0700
     30 H30        -3.8483    4.5706   55.0673 H       1  ZINC001045463759    0.0800
     31 H31        -6.1044    4.9821   54.1242 H       1  ZINC001045463759    0.0700
     32 H32        -4.9308    6.1745   53.5167 H       1  ZINC001045463759    0.0700
     33 H33        -5.8260    3.6516   52.0503 H       1  ZINC001045463759    0.0700
     34 H34        -6.3539    5.3104   51.6791 H       1  ZINC001045463759    0.0700
     35 H35        -4.5203    4.6008   50.1681 H       1  ZINC001045463759    0.0700
     36 H36        -4.0058    5.9518   51.2065 H       1  ZINC001045463759    0.0700
     37 H37        -1.2947    4.8994   51.1431 H       1  ZINC001045463759    0.4100
     38 H38        -0.7484    5.0108   48.6506 H       1  ZINC001045463759    0.1400
     39 H39        -0.4828    3.5732   46.6457 H       1  ZINC001045463759    0.1700
     40 H40        -3.5582   -0.0675   49.1189 H       1  ZINC001045463759    0.1300
     41 H41        -3.1379   -1.4473   47.0320 H       1  ZINC001045463759    0.1000
     42 H42        -1.8095   -0.2732   46.5235 H       1  ZINC001045463759    0.1100
     43 H43        -0.5401   -0.7847   48.6592 H       1  ZINC001045463759    0.1000
     44 H44        -1.8684   -1.9587   49.1676 H       1  ZINC001045463759    0.1000
     45 H45         2.2097    3.4960   55.8820 H       1  ZINC001045463759    0.1400
     46 H46         0.6529    4.4209   56.2320 H       1  ZINC001045463759    0.1300
@<TRIPOS>BOND
     1     1     2    2
     2     2     3   am
     3     2    22    1
     4     3     4    1
     5     3    28    1
     6     4     5    1
     7     4    10    1
     8     4     6    1
     9     6     7    1
    10     6    29    1
    11     6    30    1
    12     7     8    1
    13     7    31    1
    14     7    32    1
    15     8     9    1
    16     8    33    1
    17     8    34    1
    18     9    10    1
    19     9    35    1
    20     9    36    1
    21    10    11    1
    22    10    12    1
    23    12    13    1
    24    12    37    1
    25    13    21   ar
    26    13    14   ar
    27    14    15   ar
    28    14    38    1
    29    15    16   ar
    30    15    39    1
    31    16    17   ar
    32    17    18    1
    33    17    21   ar
    34    18    20    1
    35    18    19    1
    36    18    40    1
    37    19    20    1
    38    19    41    1
    39    19    42    1
    40    20    43    1
    41    20    44    1
    42    22    23    1
    43    22    25    1
    44    22    24    1
    45    24    25    1
    46    24    45    1
    47    24    46    1
    48    25    26    1
    49    25    27    1
@<TRIPOS>SUBSTRUCTURE
     1 ZINC001045463759        1 TEMP              0 ****  ****    0 ROOT


##########                                Name:    ZINC000928803822
##########                DOCK_Rotatable_Bonds:                   7
##########                         Heavy_Atoms:                  21
##########                    Molecular_Weight:             364.165
##########                DOCK_Rotatable_Bonds:                   7
##########                       Formal_Charge:         -0.00999978
##########                     HBond_Acceptors:                   7
##########                        HBond_Donors:                   1
##########                         Heavy_Atoms:                  21
##########                          Grid_Score:          -26.899399
##########                     Grid_vdw_energy:          -24.783356
##########                      Grid_es_energy:           -2.116043
##########           Internal_energy_repulsive:            9.192427

@<TRIPOS>MOLECULE
ZINC000928803822
 34 34 1 0 0
SMALL
USER_CHARGES


@<TRIPOS>ATOM
      1 C1         -2.2177   -1.2338   47.6295 C.3     1  ZINC000928803822    0.0900
      2 N2         -2.0184    0.1163   47.0964 N.pl3   1  ZINC000928803822   -0.6300
      3 C3         -2.4346    0.4322   45.7278 C.3     1  ZINC000928803822    0.0900
      4 C4         -1.4317    1.1023   47.8934 C.ar    1  ZINC000928803822    0.2200
      5 C5         -0.1972    1.6355   47.5426 C.ar    1  ZINC000928803822   -0.1500
      6 C6          0.3879    2.6120   48.3286 C.ar    1  ZINC000928803822   -0.0500
      7 Br7         2.0677    3.3318   47.8427 Br      1  ZINC000928803822   -0.0400
      8 C8         -0.2511    3.0631   49.4664 C.ar    1  ZINC000928803822   -0.1200
      9 C9         -1.4914    2.5336   49.8268 C.ar    1  ZINC000928803822   -0.0800
     10 C10        -2.1778    3.0149   51.0448 C.2     1  ZINC000928803822    0.5700
     11 O11        -1.5856    3.0412   52.1060 O.2     1  ZINC000928803822   -0.5100
     12 N12        -3.4601    3.4245   50.9784 N.am    1  ZINC000928803822   -0.7200
     13 C13        -4.1408    3.8997   52.1855 C.3     1  ZINC000928803822    0.1100
     14 H14        -3.6541    3.4802   53.0660 H       1  ZINC000928803822    0.1400
     15 C15        -5.6050    3.4574   52.1529 C.3     1  ZINC000928803822   -0.0300
     16 C16        -6.2169    3.6884   53.4715 C.1     1  ZINC000928803822    0.2000
     17 N17        -6.6891    3.8666   54.4893 N.1     1  ZINC000928803822   -0.4000
     18 C18        -4.0704    5.4269   52.2429 C.3     1  ZINC000928803822    0.4400
     19 F19        -4.4974    5.8665   53.5005 F       1  ZINC000928803822   -0.1800
     20 F20        -2.7518    5.8416   52.0270 F       1  ZINC000928803822   -0.1700
     21 F21        -4.8977    5.9694   51.2537 F       1  ZINC000928803822   -0.1600
     22 C22        -2.0837    1.5531   49.0313 C.ar    1  ZINC000928803822   -0.1200
     23 H23        -1.3385   -1.8419   47.4163 H       1  ZINC000928803822    0.0600
     24 H24        -2.3695   -1.1800   48.7075 H       1  ZINC000928803822    0.0700
     25 H25        -3.0931   -1.6838   47.1612 H       1  ZINC000928803822    0.0700
     26 H26        -3.4663    0.7838   45.7337 H       1  ZINC000928803822    0.0500
     27 H27        -1.7879    1.2100   45.3218 H       1  ZINC000928803822    0.0700
     28 H28        -2.3593   -0.4623   45.1095 H       1  ZINC000928803822    0.0700
     29 H29         0.3072    1.2861   46.6539 H       1  ZINC000928803822    0.1400
     30 H30         0.2089    3.8255   50.0777 H       1  ZINC000928803822    0.1300
     31 H31        -3.9323    3.4046   50.1313 H       1  ZINC000928803822    0.4100
     32 H32        -6.1415    4.0321   51.3977 H       1  ZINC000928803822    0.1400
     33 H33        -5.6588    2.3966   51.9081 H       1  ZINC000928803822    0.1300
     34 H34        -3.0431    1.1399   49.3054 H       1  ZINC000928803822    0.1500
@<TRIPOS>BOND
     1     1     2    1
     2     1    23    1
     3     1    24    1
     4     1    25    1
     5     2     3    1
     6     2     4    1
     7     3    26    1
     8     3    27    1
     9     3    28    1
    10     4    22   ar
    11     4     5   ar
    12     5     6   ar
    13     5    29    1
    14     6     7    1
    15     6     8   ar
    16     8     9   ar
    17     8    30    1
    18     9    10    1
    19     9    22   ar
    20    10    11    2
    21    10    12   am
    22    12    13    1
    23    12    31    1
    24    13    14    1
    25    13    15    1
    26    13    18    1
    27    15    16    1
    28    15    32    1
    29    15    33    1
    30    16    17    3
    31    18    19    1
    32    18    20    1
    33    18    21    1
    34    22    34    1
@<TRIPOS>SUBSTRUCTURE
     1 ZINC000928803822        1 TEMP              0 ****  ****    0 ROOT


##########                                Name:    ZINC001053792610
##########                DOCK_Rotatable_Bonds:                   5
##########                         Heavy_Atoms:                  25
##########                    Molecular_Weight:             347.374
##########                DOCK_Rotatable_Bonds:                   5
##########                       Formal_Charge:          -0.0400001
##########                     HBond_Acceptors:                   9
##########                        HBond_Donors:                   2
##########                         Heavy_Atoms:                  25
##########                          Grid_Score:          -26.878286
##########                     Grid_vdw_energy:          -26.100115
##########                      Grid_es_energy:           -0.778171
##########           Internal_energy_repulsive:            5.913065

@<TRIPOS>MOLECULE
ZINC001053792610
 46 49 1 0 0
SMALL
USER_CHARGES


@<TRIPOS>ATOM
      1 C1         -5.5920    4.6160   54.1971 C.3     1  ZINC001053792610   -0.1000
      2 C2         -4.6040    4.6613   53.0600 C.ar    1  ZINC001053792610    0.0800
      3 C3         -5.0191    4.3776   51.7712 C.ar    1  ZINC001053792610    0.0600
      4 N4         -4.1527    4.4173   50.7741 N.ar    1  ZINC001053792610   -0.4200
      5 C5         -2.8900    4.7279   51.0081 C.ar    1  ZINC001053792610    0.0800
      6 C6         -1.9021    4.7737   49.8710 C.3     1  ZINC001053792610    0.0700
      7 N7         -1.2443    3.4666   49.7409 N.3     1  ZINC001053792610   -0.4500
      8 C8         -0.7445    3.2604   48.3673 C.3     1  ZINC001053792610   -0.0100
      9 C9         -1.2575    1.8248   48.4609 C.3     1  ZINC001053792610    0.0800
     10 C10        -2.2326    2.4000   49.4861 C.3     1  ZINC001053792610   -0.0100
     11 C11        -1.9033    1.2758   47.1790 C.3     1  ZINC001053792610   -0.1500
     12 C12        -0.8711    0.2025   46.7321 C.3     1  ZINC001053792610    0.1100
     13 H13        -1.3550   -0.5991   46.1740 H       1  ZINC001053792610    0.1200
     14 N14         0.2121    0.8051   45.9511 N.am    1  ZINC001053792610   -0.7100
     15 C15         0.1556    0.8004   44.6046 C.2     1  ZINC001053792610    0.5000
     16 O16        -0.7929    0.2983   44.0393 O.2     1  ZINC001053792610   -0.5100
     17 C17         1.2706    1.4187   43.8013 C.3     1  ZINC001053792610    0.0800
     18 H18         1.3437    0.9455   42.8222 H       1  ZINC001053792610    0.1300
     19 C19         1.0537    2.9372   43.6537 C.3     1  ZINC001053792610    0.0500
     20 O20         2.2185    3.5245   44.3027 O.3     1  ZINC001053792610   -0.3200
     21 C21         3.0096    2.5503   44.7661 C.2     1  ZINC001053792610    0.6500
     22 O22         4.0518    2.7651   45.3526 O.2     1  ZINC001053792610   -0.5100
     23 N23         2.5478    1.3126   44.5232 N.am    1  ZINC001053792610   -0.7100
     24 C24        -0.3564   -0.3040   48.1038 C.3     1  ZINC001053792610    0.0400
     25 O25        -0.3315    0.8597   48.9499 O.3     1  ZINC001053792610   -0.3300
     26 C26        -2.4747    5.0117   52.2973 C.ar    1  ZINC001053792610    0.0600
     27 N27        -3.3421    4.9773   53.2934 N.ar    1  ZINC001053792610   -0.4400
     28 H28        -6.0505    5.5973   54.3193 H       1  ZINC001053792610    0.0800
     29 H29        -6.3645    3.8788   53.9781 H       1  ZINC001053792610    0.0800
     30 H30        -5.0757    4.3392   55.1163 H       1  ZINC001053792610    0.0800
     31 H31        -6.0512    4.1234   51.5801 H       1  ZINC001053792610    0.1700
     32 H32        -2.4252    5.0110   48.9446 H       1  ZINC001053792610    0.1000
     33 H33        -1.1526    5.5392   50.0714 H       1  ZINC001053792610    0.0600
     34 H34        -1.2648    3.8602   47.6206 H       1  ZINC001053792610    0.0800
     35 H35         0.3401    3.3299   48.2844 H       1  ZINC001053792610    0.0900
     36 H36        -2.3980    1.7469   50.3430 H       1  ZINC001053792610    0.1000
     37 H37        -3.1612    2.7638   49.0465 H       1  ZINC001053792610    0.0800
     38 H38        -2.8700    0.8205   47.3943 H       1  ZINC001053792610    0.1000
     39 H39        -2.0018    2.0583   46.4268 H       1  ZINC001053792610    0.1000
     40 H40         0.9700    1.2078   46.4033 H       1  ZINC001053792610    0.4000
     41 H41         1.0207    3.2178   42.6010 H       1  ZINC001053792610    0.1200
     42 H42         0.1387    3.2435   44.1607 H       1  ZINC001053792610    0.1100
     43 H43         2.9843    0.4864   44.7838 H       1  ZINC001053792610    0.4400
     44 H44        -1.0368   -1.0524   48.5101 H       1  ZINC001053792610    0.0800
     45 H45         0.6463   -0.7190   48.0018 H       1  ZINC001053792610    0.0900
     46 H46        -1.4426    5.2656   52.4886 H       1  ZINC001053792610    0.1600
@<TRIPOS>BOND
     1     1     2    1
     2     1    28    1
     3     1    29    1
     4     1    30    1
     5     2    27   ar
     6     2     3   ar
     7     3     4   ar
     8     3    31    1
     9     4     5   ar
    10     5     6    1
    11     5    26   ar
    12     6     7    1
    13     6    32    1
    14     6    33    1
    15     7    10    1
    16     7     8    1
    17     8     9    1
    18     8    34    1
    19     8    35    1
    20     9    25    1
    21     9    10    1
    22     9    11    1
    23    10    36    1
    24    10    37    1
    25    11    12    1
    26    11    38    1
    27    11    39    1
    28    12    13    1
    29    12    14    1
    30    12    24    1
    31    14    15   am
    32    14    40    1
    33    15    16    2
    34    15    17    1
    35    17    18    1
    36    17    23    1
    37    17    19    1
    38    19    20    1
    39    19    41    1
    40    19    42    1
    41    20    21    1
    42    21    22    2
    43    21    23   am
    44    23    43    1
    45    24    25    1
    46    24    44    1
    47    24    45    1
    48    26    27   ar
    49    26    46    1
@<TRIPOS>SUBSTRUCTURE
     1 ZINC001053792610        1 TEMP              0 ****  ****    0 ROOT


##########                                Name:    ZINC001074839487
##########                DOCK_Rotatable_Bonds:                   7
##########                         Heavy_Atoms:                  25
##########                    Molecular_Weight:             344.454
##########                DOCK_Rotatable_Bonds:                   7
##########                       Formal_Charge:          -0.0500005
##########                     HBond_Acceptors:                   5
##########                        HBond_Donors:                   1
##########                         Heavy_Atoms:                  25
##########                          Grid_Score:          -26.872234
##########                     Grid_vdw_energy:          -25.813761
##########                      Grid_es_energy:           -1.058473
##########           Internal_energy_repulsive:           90.570961

@<TRIPOS>MOLECULE
ZINC001074839487
 53 55 1 0 0
SMALL
USER_CHARGES


@<TRIPOS>ATOM
      1 C1         -9.6529   -0.4652   51.6847 C.3     1  ZINC001074839487   -0.1500
      2 C2        -11.0368   -0.2903   52.3134 C.3     1  ZINC001074839487   -0.1300
      3 C3        -11.5159   -1.6311   52.8731 C.3     1  ZINC001074839487   -0.1100
      4 C4        -10.6320   -2.0359   54.0545 C.3     1  ZINC001074839487   -0.1400
      5 C5        -11.3890   -2.9862   54.9459 C.2     1  ZINC001074839487    0.5100
      6 O6        -11.6080   -4.1203   54.5760 O.2     1  ZINC001074839487   -0.5400
      7 N7        -11.8227   -2.5761   56.1543 N.am    1  ZINC001074839487   -0.7300
      8 C8        -12.5570   -3.5005   57.0216 C.3     1  ZINC001074839487    0.1400
      9 H9        -12.2079   -4.5181   56.8459 H       1  ZINC001074839487    0.0900
     10 C10       -12.3177   -3.1250   58.4858 C.3     1  ZINC001074839487   -0.1500
     11 C11       -12.7779   -1.6828   58.7207 C.3     1  ZINC001074839487    0.0700
     12 N12       -14.1755   -1.5556   58.2858 N.am    1  ZINC001074839487   -0.6000
     13 C13       -15.1125   -1.0643   59.1208 C.2     1  ZINC001074839487    0.5600
     14 O14       -16.2654   -0.9638   58.7491 O.2     1  ZINC001074839487   -0.5200
     15 C15       -14.7380   -0.6472   60.4888 C.ar    1  ZINC001074839487   -0.1300
     16 C16       -14.5058   -1.6069   61.4751 C.ar    1  ZINC001074839487   -0.1000
     17 C17       -14.1564   -1.2120   62.7508 C.ar    1  ZINC001074839487   -0.1000
     18 C18       -14.0366    0.1304   63.0520 C.ar    1  ZINC001074839487   -0.1100
     19 C19       -13.6782    0.8638   64.3240 C.3     1  ZINC001074839487    0.0900
     20 O20       -14.1229    2.2198   64.1378 O.3     1  ZINC001074839487   -0.3600
     21 C21       -14.0562    2.4416   62.7173 C.3     1  ZINC001074839487    0.0900
     22 C22       -14.2663    1.0898   62.0756 C.ar    1  ZINC001074839487   -0.1400
     23 C23       -14.6097    0.7088   60.7981 C.ar    1  ZINC001074839487   -0.0400
     24 C24       -14.5325   -1.9749   56.9237 C.3     1  ZINC001074839487    0.1500
     25 H25       -14.0501   -1.3170   56.2007 H       1  ZINC001074839487    0.0700
     26 C26       -16.0510   -1.9090   56.7481 C.3     1  ZINC001074839487   -0.1400
     27 C27       -14.0527   -3.4137   56.7089 C.3     1  ZINC001074839487   -0.1400
     28 H28        -8.9512   -0.8142   52.4423 H       1  ZINC001074839487    0.0500
     29 H29        -9.3116    0.4901   51.2859 H       1  ZINC001074839487    0.0500
     30 H30        -9.7100   -1.1961   50.8781 H       1  ZINC001074839487    0.0500
     31 H31       -10.9797    0.4407   53.1199 H       1  ZINC001074839487    0.0600
     32 H32       -11.7385    0.0588   51.5558 H       1  ZINC001074839487    0.0600
     33 H33       -12.5490   -1.5369   53.2078 H       1  ZINC001074839487    0.0700
     34 H34       -11.4540   -2.3925   52.0954 H       1  ZINC001074839487    0.0700
     35 H35        -9.7313   -2.5250   53.6836 H       1  ZINC001074839487    0.0900
     36 H36       -10.3554   -1.1476   54.6224 H       1  ZINC001074839487    0.0900
     37 H37       -11.6485   -1.6686   56.4496 H       1  ZINC001074839487    0.4000
     38 H38       -12.8835   -3.7970   59.1309 H       1  ZINC001074839487    0.0800
     39 H39       -11.2552   -3.2096   58.7140 H       1  ZINC001074839487    0.0800
     40 H40       -12.7019   -1.4432   59.7813 H       1  ZINC001074839487    0.1200
     41 H41       -12.1524   -1.0012   58.1442 H       1  ZINC001074839487    0.0700
     42 H42       -14.5988   -2.6571   61.2404 H       1  ZINC001074839487    0.1500
     43 H43       -13.9762   -1.9540   63.5146 H       1  ZINC001074839487    0.1400
     44 H44       -14.1908    0.4137   65.1741 H       1  ZINC001074839487    0.1000
     45 H45       -12.5996    0.8403   64.4797 H       1  ZINC001074839487    0.0800
     46 H46       -14.8419    3.1306   62.4075 H       1  ZINC001074839487    0.1000
     47 H47       -13.0785    2.8388   62.4447 H       1  ZINC001074839487    0.0800
     48 H48       -14.7834    1.4563   60.0381 H       1  ZINC001074839487    0.1400
     49 H49       -16.3775   -0.8701   56.7954 H       1  ZINC001074839487    0.0800
     50 H50       -16.3236   -2.3319   55.7812 H       1  ZINC001074839487    0.0500
     51 H51       -16.5336   -2.4780   57.5427 H       1  ZINC001074839487    0.0700
     52 H52       -14.2250   -3.7039   55.6725 H       1  ZINC001074839487    0.0900
     53 H53       -14.6021   -4.0831   57.3708 H       1  ZINC001074839487    0.0900
@<TRIPOS>BOND
     1     1     2    1
     2     1    28    1
     3     1    29    1
     4     1    30    1
     5     2     3    1
     6     2    31    1
     7     2    32    1
     8     3     4    1
     9     3    33    1
    10     3    34    1
    11     4     5    1
    12     4    35    1
    13     4    36    1
    14     5     6    2
    15     5     7   am
    16     7     8    1
    17     7    37    1
    18     8     9    1
    19     8    27    1
    20     8    10    1
    21    10    11    1
    22    10    38    1
    23    10    39    1
    24    11    12    1
    25    11    40    1
    26    11    41    1
    27    12    13   am
    28    12    24    1
    29    13    14    2
    30    13    15    1
    31    15    23   ar
    32    15    16   ar
    33    16    17   ar
    34    16    42    1
    35    17    18   ar
    36    17    43    1
    37    18    22   ar
    38    18    19    1
    39    19    20    1
    40    19    44    1
    41    19    45    1
    42    20    21    1
    43    21    22    1
    44    21    46    1
    45    21    47    1
    46    22    23   ar
    47    23    48    1
    48    24    25    1
    49    24    26    1
    50    24    27    1
    51    26    49    1
    52    26    50    1
    53    26    51    1
    54    27    52    1
    55    27    53    1
@<TRIPOS>SUBSTRUCTURE
     1 ZINC001074839487        1 TEMP              0 ****  ****    0 ROOT


##########                                Name:    ZINC001064463188
##########                DOCK_Rotatable_Bonds:                   6
##########                         Heavy_Atoms:                  25
##########                    Molecular_Weight:             342.441
##########                DOCK_Rotatable_Bonds:                   6
##########                       Formal_Charge:          -0.0100004
##########                     HBond_Acceptors:                   6
##########                        HBond_Donors:                   0
##########                         Heavy_Atoms:                  25
##########                          Grid_Score:          -26.844318
##########                     Grid_vdw_energy:          -25.904156
##########                      Grid_es_energy:           -0.940163
##########           Internal_energy_repulsive:           12.050905

@<TRIPOS>MOLECULE
ZINC001064463188
 51 54 1 0 0
SMALL
USER_CHARGES


@<TRIPOS>ATOM
      1 C1          1.5350    5.9995   43.9533 C.3     1  ZINC001064463188    0.0400
      2 O2          2.4593    4.9937   43.5338 O.3     1  ZINC001064463188   -0.3000
      3 C3          2.0668    3.7034   43.6667 C.ar    1  ZINC001064463188    0.3900
      4 C4          2.3500    2.7721   42.6689 C.ar    1  ZINC001064463188   -0.2800
      5 C5          1.9306    1.4669   42.8464 C.ar    1  ZINC001064463188    0.2000
      6 N6          1.2768    1.1415   43.9511 N.ar    1  ZINC001064463188   -0.5800
      7 C7          1.0218    2.0484   44.8827 C.ar    1  ZINC001064463188    0.5300
      8 N8          0.3364    1.6696   46.0238 N.3     1  ZINC001064463188   -0.4500
      9 C9         -0.8499    0.8863   45.6863 C.3     1  ZINC001064463188    0.0700
     10 C10        -2.0446    1.3467   46.5300 C.3     1  ZINC001064463188   -0.1200
     11 C11        -1.8603    1.0245   48.0007 C.3     1  ZINC001064463188    0.1400
     12 H12        -2.6995    1.4172   48.5749 H       1  ZINC001064463188    0.0900
     13 C13        -1.7271   -0.4815   48.2357 C.3     1  ZINC001064463188   -0.1300
     14 C14        -0.2165   -0.7510   48.1192 C.3     1  ZINC001064463188   -0.1300
     15 C15         0.4485    0.6236   48.2502 C.3     1  ZINC001064463188    0.1200
     16 H16         1.1292    0.6230   49.1015 H       1  ZINC001064463188    0.0900
     17 C17         1.2325    0.9554   46.9711 C.3     1  ZINC001064463188    0.0600
     18 N18        -0.5910    1.6688   48.4492 N.am    1  ZINC001064463188   -0.6000
     19 C19        -0.4153    2.9167   48.9270 C.2     1  ZINC001064463188    0.5800
     20 O20         0.6947    3.2926   49.2521 O.2     1  ZINC001064463188   -0.5400
     21 C21        -1.5660    3.8241   49.0552 C.2     1  ZINC001064463188   -0.2200
     22 C22        -2.2729    3.8466   50.1815 C.2     1  ZINC001064463188    0.0000
     23 C23        -1.8948    2.9426   51.3265 C.3     1  ZINC001064463188   -0.1300
     24 C24        -3.4517    4.7761   50.3129 C.3     1  ZINC001064463188   -0.1200
     25 C25        -3.2609    6.0458   51.1450 C.3     1  ZINC001064463188   -0.1900
     26 C26        -3.3586    6.1374   49.6208 C.3     1  ZINC001064463188   -0.1600
     27 N27         1.4121    3.3075   44.7516 N.ar    1  ZINC001064463188   -0.5900
     28 H28         1.3118    5.8688   45.0122 H       1  ZINC001064463188    0.0600
     29 H29         1.9728    6.9848   43.7931 H       1  ZINC001064463188    0.1000
     30 H30         0.6154    5.9120   43.3746 H       1  ZINC001064463188    0.0600
     31 H31         2.8846    3.0638   41.7770 H       1  ZINC001064463188    0.1500
     32 H32         2.1336    0.7209   42.0923 H       1  ZINC001064463188    0.1800
     33 H33        -1.0815    1.0188   44.6295 H       1  ZINC001064463188    0.0800
     34 H34        -0.6544   -0.1680   45.8818 H       1  ZINC001064463188    0.0600
     35 H35        -2.1651    2.4239   46.4156 H       1  ZINC001064463188    0.0800
     36 H36        -2.9456    0.8507   46.1688 H       1  ZINC001064463188    0.0800
     37 H37        -2.0859   -0.7454   49.2306 H       1  ZINC001064463188    0.0800
     38 H38        -2.2733   -1.0363   47.4728 H       1  ZINC001064463188    0.0900
     39 H39         0.1134   -1.4087   48.9234 H       1  ZINC001064463188    0.0800
     40 H40         0.0152   -1.1922   47.1499 H       1  ZINC001064463188    0.0800
     41 H41         1.5733    0.0325   46.5019 H       1  ZINC001064463188    0.0700
     42 H42         2.0909    1.5791   47.2204 H       1  ZINC001064463188    0.0900
     43 H43        -1.8369    4.4719   48.2346 H       1  ZINC001064463188    0.1200
     44 H44        -1.1856    3.4559   51.9758 H       1  ZINC001064463188    0.0800
     45 H45        -2.7878    2.6846   51.8958 H       1  ZINC001064463188    0.0800
     46 H46        -1.4377    2.0334   50.9359 H       1  ZINC001064463188    0.0700
     47 H47        -4.4289    4.2942   50.3462 H       1  ZINC001064463188    0.1400
     48 H48        -4.1127    6.3994   51.7260 H       1  ZINC001064463188    0.1000
     49 H49        -2.2828    6.2088   51.5973 H       1  ZINC001064463188    0.1000
     50 H50        -2.4447    6.3608   49.0705 H       1  ZINC001064463188    0.0900
     51 H51        -4.2745    6.5514   49.1992 H       1  ZINC001064463188    0.1000
@<TRIPOS>BOND
     1     1     2    1
     2     1    28    1
     3     1    29    1
     4     1    30    1
     5     2     3    1
     6     3    27   ar
     7     3     4   ar
     8     4     5   ar
     9     4    31    1
    10     5     6   ar
    11     5    32    1
    12     6     7   ar
    13     7     8    1
    14     7    27   ar
    15     8    17    1
    16     8     9    1
    17     9    10    1
    18     9    33    1
    19     9    34    1
    20    10    11    1
    21    10    35    1
    22    10    36    1
    23    11    12    1
    24    11    18    1
    25    11    13    1
    26    13    14    1
    27    13    37    1
    28    13    38    1
    29    14    15    1
    30    14    39    1
    31    14    40    1
    32    15    16    1
    33    15    17    1
    34    15    18    1
    35    17    41    1
    36    17    42    1
    37    18    19   am
    38    19    20    2
    39    19    21    1
    40    21    22    2
    41    21    43    1
    42    22    23    1
    43    22    24    1
    44    23    44    1
    45    23    45    1
    46    23    46    1
    47    24    26    1
    48    24    25    1
    49    24    47    1
    50    25    26    1
    51    25    48    1
    52    25    49    1
    53    26    50    1
    54    26    51    1
@<TRIPOS>SUBSTRUCTURE
     1 ZINC001064463188        1 TEMP              0 ****  ****    0 ROOT


##########                                Name:    ZINC000464706598
##########                DOCK_Rotatable_Bonds:                   4
##########                         Heavy_Atoms:                  26
##########                    Molecular_Weight:             412.286
##########                DOCK_Rotatable_Bonds:                   4
##########                       Formal_Charge:           0.0100001
##########                     HBond_Acceptors:                   5
##########                        HBond_Donors:                   0
##########                         Heavy_Atoms:                  26
##########                          Grid_Score:          -26.818638
##########                     Grid_vdw_energy:          -26.017353
##########                      Grid_es_energy:           -0.801285
##########           Internal_energy_repulsive:           58.861813

@<TRIPOS>MOLECULE
ZINC000464706598
 44 47 1 0 0
SMALL
USER_CHARGES


@<TRIPOS>ATOM
      1 O1        -11.7627    1.3228   54.5370 O.2     1  ZINC000464706598   -0.5000
      2 C2        -11.7758    0.1591   54.8897 C.2     1  ZINC000464706598    0.5900
      3 C3        -11.7269   -0.1770   56.3242 C.2     1  ZINC000464706598   -0.2800
      4 C4        -10.7104    0.1355   57.2048 C.2     1  ZINC000464706598    0.1300
      5 N5        -11.0590   -0.3509   58.4098 N.pl3   1  ZINC000464706598   -0.3100
      6 C6        -10.3019   -0.2484   59.5850 C.ar    1  ZINC000464706598    0.1700
      7 C7         -9.1820    0.5715   59.6215 C.ar    1  ZINC000464706598   -0.1300
      8 C8         -8.4381    0.6712   60.7808 C.ar    1  ZINC000464706598   -0.0600
      9 C9         -8.8076   -0.0457   61.9051 C.ar    1  ZINC000464706598   -0.1000
     10 Br10       -7.7863    0.0926   63.4906 Br      1  ZINC000464706598   -0.0400
     11 C11        -9.9235   -0.8631   61.8715 C.ar    1  ZINC000464706598   -0.0700
     12 C12       -10.6738   -0.9622   60.7163 C.ar    1  ZINC000464706598   -0.1100
     13 N13       -12.3054   -0.9759   58.2915 N.2     1  ZINC000464706598   -0.2800
     14 C14       -12.7144   -0.8739   57.0567 C.2     1  ZINC000464706598    0.0700
     15 N15       -11.8409   -0.8234   53.9693 N.am    1  ZINC000464706598   -0.6100
     16 C16       -11.8644   -2.2385   54.3722 C.3     1  ZINC000464706598    0.0400
     17 C17       -10.7939   -2.9873   53.5700 C.3     1  ZINC000464706598    0.0500
     18 O18       -10.9767   -2.7206   52.1775 O.3     1  ZINC000464706598   -0.3700
     19 C19       -10.8193   -1.3455   51.8195 C.3     1  ZINC000464706598    0.0500
     20 C20       -11.8967   -0.5123   52.5321 C.3     1  ZINC000464706598    0.1600
     21 H21       -12.8794   -0.7654   52.1340 H       1  ZINC000464706598    0.0900
     22 C22       -11.6260    0.9549   52.3208 C.ar    1  ZINC000464706598   -0.0500
     23 C23       -10.3368    1.4424   52.4275 C.ar    1  ZINC000464706598   -0.1000
     24 C24       -10.0885    2.7883   52.2337 C.ar    1  ZINC000464706598   -0.1100
     25 C25       -11.1293    3.6468   51.9327 C.ar    1  ZINC000464706598   -0.1200
     26 C26       -12.4183    3.1593   51.8250 C.ar    1  ZINC000464706598   -0.1100
     27 C27       -12.6660    1.8126   52.0146 C.ar    1  ZINC000464706598   -0.1000
     28 H28        -9.8025    0.6709   56.9696 H       1  ZINC000464706598    0.1900
     29 H29        -8.8927    1.1308   58.7439 H       1  ZINC000464706598    0.1400
     30 H30        -7.5668    1.3087   60.8097 H       1  ZINC000464706598    0.1500
     31 H31       -10.2100   -1.4213   62.7505 H       1  ZINC000464706598    0.1500
     32 H32       -11.5449   -1.6001   60.6907 H       1  ZINC000464706598    0.1500
     33 H33       -13.6424   -1.2602   56.6619 H       1  ZINC000464706598    0.2100
     34 H34       -11.6491   -2.3205   55.4376 H       1  ZINC000464706598    0.1200
     35 H35       -12.8456   -2.6639   54.1615 H       1  ZINC000464706598    0.0800
     36 H36        -9.8047   -2.6493   53.8787 H       1  ZINC000464706598    0.0600
     37 H37       -10.8863   -4.0582   53.7508 H       1  ZINC000464706598    0.1100
     38 H38        -9.8302   -1.0014   52.1218 H       1  ZINC000464706598    0.0600
     39 H39       -10.9299   -1.2352   50.7407 H       1  ZINC000464706598    0.1100
     40 H40        -9.5237    0.7716   52.6627 H       1  ZINC000464706598    0.1100
     41 H41        -9.0814    3.1693   52.3178 H       1  ZINC000464706598    0.1200
     42 H42       -10.9353    4.6985   51.7819 H       1  ZINC000464706598    0.1200
     43 H43       -13.2315    3.8301   51.5902 H       1  ZINC000464706598    0.1200
     44 H44       -13.6731    1.4317   51.9305 H       1  ZINC000464706598    0.1100
@<TRIPOS>BOND
     1     1     2    2
     2     2     3    1
     3     2    15   am
     4     3    14    1
     5     3     4    2
     6     4     5    1
     7     4    28    1
     8     5     6    1
     9     5    13    1
    10     6    12   ar
    11     6     7   ar
    12     7     8   ar
    13     7    29    1
    14     8     9   ar
    15     8    30    1
    16     9    10    1
    17     9    11   ar
    18    11    12   ar
    19    11    31    1
    20    12    32    1
    21    13    14    2
    22    14    33    1
    23    15    20    1
    24    15    16    1
    25    16    17    1
    26    16    34    1
    27    16    35    1
    28    17    18    1
    29    17    36    1
    30    17    37    1
    31    18    19    1
    32    19    20    1
    33    19    38    1
    34    19    39    1
    35    20    21    1
    36    20    22    1
    37    22    27   ar
    38    22    23   ar
    39    23    24   ar
    40    23    40    1
    41    24    25   ar
    42    24    41    1
    43    25    26   ar
    44    25    42    1
    45    26    27   ar
    46    26    43    1
    47    27    44    1
@<TRIPOS>SUBSTRUCTURE
     1 ZINC000464706598        1 TEMP              0 ****  ****    0 ROOT


##########                                Name:    ZINC000011498449
##########                DOCK_Rotatable_Bonds:                   5
##########                         Heavy_Atoms:                  21
##########                    Molecular_Weight:             331.198
##########                DOCK_Rotatable_Bonds:                   5
##########                       Formal_Charge:         1.30385e-07
##########                     HBond_Acceptors:                   7
##########                        HBond_Donors:                   1
##########                         Heavy_Atoms:                  21
##########                          Grid_Score:          -26.794155
##########                     Grid_vdw_energy:          -26.379057
##########                      Grid_es_energy:           -0.415098
##########           Internal_energy_repulsive:            9.169238

@<TRIPOS>MOLECULE
ZINC000011498449
 37 38 1 0 0
SMALL
USER_CHARGES


@<TRIPOS>ATOM
      1 C1         -2.1383    4.1886   56.7459 C.3     1  ZINC000011498449   -0.1500
      2 C2         -3.1837    3.5457   55.8321 C.3     1  ZINC000011498449    0.0700
      3 H3         -2.8687    2.5348   55.5736 H       1  ZINC000011498449    0.0600
      4 C4         -3.3286    4.3795   54.5539 C.3     1  ZINC000011498449    0.0800
      5 N5         -4.4643    3.8513   53.7815 N.am    1  ZINC000011498449   -0.6100
      6 C6         -4.3347    3.5521   52.4739 C.2     1  ZINC000011498449    0.5100
      7 O7         -5.2830    3.1192   51.8540 O.2     1  ZINC000011498449   -0.5300
      8 C8         -3.0116    3.7556   51.7819 C.3     1  ZINC000011498449    0.1000
      9 N9         -3.0481    3.1210   50.4619 N.am    1  ZINC000011498449   -0.7200
     10 C10        -1.9069    2.6871   49.8910 C.2     1  ZINC000011498449    0.5600
     11 O11        -0.8475    2.8209   50.4719 O.2     1  ZINC000011498449   -0.5100
     12 C12        -1.9436    2.0488   48.5594 C.ar    1  ZINC000011498449   -0.1300
     13 C13        -2.5366    0.7949   48.3990 C.ar    1  ZINC000011498449   -0.0600
     14 C14        -2.5682    0.2045   47.1535 C.ar    1  ZINC000011498449   -0.1100
     15 C15        -2.0133    0.8520   46.0617 C.ar    1  ZINC000011498449    0.0000
     16 Cl16       -2.0581    0.1012   44.4971 Cl      1  ZINC000011498449   -0.0400
     17 C17        -1.4235    2.0955   46.2129 C.ar    1  ZINC000011498449   -0.1100
     18 C18        -1.3899    2.7001   47.4536 C.ar    1  ZINC000011498449    0.0300
     19 Cl19       -0.6503    4.2592   47.6421 Cl      1  ZINC000011498449   -0.0100
     20 C20        -5.7456    3.6589   54.4793 C.3     1  ZINC000011498449    0.0700
     21 C21        -5.4829    2.8603   55.7611 C.3     1  ZINC000011498449    0.0500
     22 O22        -4.4425    3.4956   56.5079 O.3     1  ZINC000011498449   -0.3700
     23 H23        -2.0372    3.5963   57.6553 H       1  ZINC000011498449    0.0700
     24 H24        -1.1794    4.2281   56.2293 H       1  ZINC000011498449    0.0800
     25 H25        -2.4539    5.1995   57.0040 H       1  ZINC000011498449    0.0700
     26 H26        -3.5146    5.4214   54.8144 H       1  ZINC000011498449    0.0800
     27 H27        -2.4162    4.3058   53.9622 H       1  ZINC000011498449    0.1000
     28 H28        -2.8221    4.8229   51.6667 H       1  ZINC000011498449    0.1000
     29 H29        -2.2168    3.3078   52.3784 H       1  ZINC000011498449    0.1000
     30 H30        -3.8936    3.0132   49.9988 H       1  ZINC000011498449    0.4100
     31 H31        -2.9693    0.2884   49.2489 H       1  ZINC000011498449    0.1500
     32 H32        -3.0264   -0.7655   47.0288 H       1  ZINC000011498449    0.1500
     33 H33        -0.9926    2.5953   45.3579 H       1  ZINC000011498449    0.1500
     34 H34        -6.1750    4.6283   54.7323 H       1  ZINC000011498449    0.0900
     35 H35        -6.4337    3.1081   53.8381 H       1  ZINC000011498449    0.1000
     36 H36        -6.3922    2.8251   56.3610 H       1  ZINC000011498449    0.1100
     37 H37        -5.1772    1.8465   55.5022 H       1  ZINC000011498449    0.0600
@<TRIPOS>BOND
     1     1     2    1
     2     1    23    1
     3     1    24    1
     4     1    25    1
     5     2     3    1
     6     2    22    1
     7     2     4    1
     8     4     5    1
     9     4    26    1
    10     4    27    1
    11     5     6   am
    12     5    20    1
    13     6     7    2
    14     6     8    1
    15     8     9    1
    16     8    28    1
    17     8    29    1
    18     9    10   am
    19     9    30    1
    20    10    11    2
    21    10    12    1
    22    12    18   ar
    23    12    13   ar
    24    13    14   ar
    25    13    31    1
    26    14    15   ar
    27    14    32    1
    28    15    16    1
    29    15    17   ar
    30    17    18   ar
    31    17    33    1
    32    18    19    1
    33    20    21    1
    34    20    34    1
    35    20    35    1
    36    21    22    1
    37    21    36    1
    38    21    37    1
@<TRIPOS>SUBSTRUCTURE
     1 ZINC000011498449        1 TEMP              0 ****  ****    0 ROOT


##########                                Name:    ZINC000948289723
##########                DOCK_Rotatable_Bonds:                   6
##########                         Heavy_Atoms:                  24
##########                    Molecular_Weight:             331.415
##########                DOCK_Rotatable_Bonds:                   6
##########                       Formal_Charge:           0.0599999
##########                     HBond_Acceptors:                   6
##########                        HBond_Donors:                   1
##########                         Heavy_Atoms:                  24
##########                          Grid_Score:          -26.783073
##########                     Grid_vdw_energy:          -24.579803
##########                      Grid_es_energy:           -2.203270
##########           Internal_energy_repulsive:            6.312613

@<TRIPOS>MOLECULE
ZINC000948289723
 49 52 1 0 0
SMALL
USER_CHARGES


@<TRIPOS>ATOM
      1 C1          1.9205    4.7297   42.7321 C.3     1  ZINC000948289723   -0.1400
      2 C2          1.9946    4.2550   44.1848 C.3     1  ZINC000948289723   -0.1100
      3 C3          0.6214    3.9383   44.8002 C.3     1  ZINC000948289723   -0.1100
      4 C4          1.2896    2.7274   45.4725 C.3     1  ZINC000948289723   -0.1400
      5 C5          0.4297    1.4898   45.4789 C.2     1  ZINC000948289723    0.5400
      6 O6          0.5859    0.6383   44.6295 O.2     1  ZINC000948289723   -0.5300
      7 N7         -0.5130    1.3293   46.4286 N.am    1  ZINC000948289723   -0.6200
      8 C8         -1.4171    0.1766   46.5523 C.3     1  ZINC000948289723    0.1100
      9 C9         -2.2985    0.4168   47.7960 C.3     1  ZINC000948289723   -0.1100
     10 H10        -3.2546    0.8567   47.5121 H       1  ZINC000948289723    0.1000
     11 C11        -2.5126   -0.8867   48.5680 C.3     1  ZINC000948289723   -0.1400
     12 C12        -1.4582    1.4208   48.6288 C.3     1  ZINC000948289723    0.1400
     13 H13        -0.6999    0.9028   49.2158 H       1  ZINC000948289723    0.1200
     14 N14        -2.3174    2.2376   49.4895 N.am    1  ZINC000948289723   -0.7100
     15 C15        -1.7724    2.9940   50.4627 C.2     1  ZINC000948289723    0.6100
     16 O16        -0.5675    2.9997   50.6253 O.2     1  ZINC000948289723   -0.5000
     17 C17        -2.6376    3.8150   51.3306 C.2     1  ZINC000948289723   -0.0900
     18 C18        -3.9902    3.9875   51.2167 C.2     1  ZINC000948289723   -0.1400
     19 C19        -4.3113    4.8554   52.2840 C.2     1  ZINC000948289723    0.0500
     20 C20        -5.6785    5.3824   52.6363 C.3     1  ZINC000948289723   -0.0900
     21 C21        -6.5979    4.4716   53.4525 C.3     1  ZINC000948289723   -0.1600
     22 C22        -5.9570    5.6968   54.1076 C.3     1  ZINC000948289723   -0.1600
     23 N23        -3.1960    5.1106   52.9039 N.2     1  ZINC000948289723   -0.3300
     24 O24        -2.2569    4.5416   52.3982 O.3     1  ZINC000948289723    0.1200
     25 C25        -0.8042    2.2776   47.5192 C.3     1  ZINC000948289723    0.0900
     26 C26         2.3163    2.7581   44.3281 C.3     1  ZINC000948289723   -0.1200
     27 H27         1.1398    4.1777   42.2089 H       1  ZINC000948289723    0.0600
     28 H28         1.6901    5.7948   42.7093 H       1  ZINC000948289723    0.0600
     29 H29         2.8790    4.5548   42.2434 H       1  ZINC000948289723    0.0600
     30 H30         2.6166    4.8970   44.8087 H       1  ZINC000948289723    0.0900
     31 H31         0.2746    4.6933   45.5059 H       1  ZINC000948289723    0.0700
     32 H32        -0.1349    3.6666   44.0638 H       1  ZINC000948289723    0.1000
     33 H33         1.7165    2.9512   46.4501 H       1  ZINC000948289723    0.1100
     34 H34        -2.0433    0.0995   45.6635 H       1  ZINC000948289723    0.0800
     35 H35        -0.8371   -0.7375   46.6800 H       1  ZINC000948289723    0.0800
     36 H36        -1.5472   -1.2939   48.8680 H       1  ZINC000948289723    0.0600
     37 H37        -3.1152   -0.6892   49.4546 H       1  ZINC000948289723    0.0600
     38 H38        -3.0281   -1.6056   47.9311 H       1  ZINC000948289723    0.0700
     39 H39        -3.2786    2.2339   49.3589 H       1  ZINC000948289723    0.4100
     40 H40        -4.6566    3.5602   50.4822 H       1  ZINC000948289723    0.1800
     41 H41        -6.1417    6.0254   51.8879 H       1  ZINC000948289723    0.1300
     42 H42        -7.6663    4.5151   53.2411 H       1  ZINC000948289723    0.1100
     43 H43        -6.2139    3.4913   53.7346 H       1  ZINC000948289723    0.1000
     44 H44        -5.1512    5.5225   54.8206 H       1  ZINC000948289723    0.1000
     45 H45        -6.6036    6.5463   54.3271 H       1  ZINC000948289723    0.1100
     46 H46         0.1154    2.7344   47.8850 H       1  ZINC000948289723    0.0900
     47 H47        -1.4979    3.0439   47.1733 H       1  ZINC000948289723    0.0800
     48 H48         2.0235    2.1638   43.4626 H       1  ZINC000948289723    0.0900
     49 H49         3.3379    2.5602   44.6526 H       1  ZINC000948289723    0.0800
@<TRIPOS>BOND
     1     1     2    1
     2     1    27    1
     3     1    28    1
     4     1    29    1
     5     2    26    1
     6     2     3    1
     7     2    30    1
     8     3     4    1
     9     3    31    1
    10     3    32    1
    11     4     5    1
    12     4    26    1
    13     4    33    1
    14     5     6    2
    15     5     7   am
    16     7    25    1
    17     7     8    1
    18     8     9    1
    19     8    34    1
    20     8    35    1
    21     9    10    1
    22     9    11    1
    23     9    12    1
    24    11    36    1
    25    11    37    1
    26    11    38    1
    27    12    13    1
    28    12    14    1
    29    12    25    1
    30    14    15   am
    31    14    39    1
    32    15    16    2
    33    15    17    1
    34    17    24    1
    35    17    18    2
    36    18    19    1
    37    18    40    1
    38    19    20    1
    39    19    23    2
    40    20    22    1
    41    20    21    1
    42    20    41    1
    43    21    22    1
    44    21    42    1
    45    21    43    1
    46    22    44    1
    47    22    45    1
    48    23    24    1
    49    25    46    1
    50    25    47    1
    51    26    48    1
    52    26    49    1
@<TRIPOS>SUBSTRUCTURE
     1 ZINC000948289723        1 TEMP              0 ****  ****    0 ROOT


##########                                Name:    ZINC000518937710
##########                DOCK_Rotatable_Bonds:                   6
##########                         Heavy_Atoms:                  25
##########                    Molecular_Weight:             397.421
##########                DOCK_Rotatable_Bonds:                   6
##########                       Formal_Charge:          -0.0199997
##########                     HBond_Acceptors:                  11
##########                        HBond_Donors:                   0
##########                         Heavy_Atoms:                  25
##########                          Grid_Score:          -26.778603
##########                     Grid_vdw_energy:          -25.647312
##########                      Grid_es_energy:           -1.131290
##########           Internal_energy_repulsive:           27.669033

@<TRIPOS>MOLECULE
ZINC000518937710
 42 44 1 0 0
SMALL
USER_CHARGES


@<TRIPOS>ATOM
      1 C1         -1.8842    1.3235   45.9659 C.3     1  ZINC000518937710   -0.1900
      2 C2         -0.8309    1.3995   47.0730 C.3     1  ZINC000518937710    0.1700
      3 H3         -1.2861    1.7946   47.9811 H       1  ZINC000518937710    0.1100
      4 C4         -0.2774   -0.0003   47.3473 C.3     1  ZINC000518937710   -0.6600
      5 S5         -1.6512   -1.1438   47.6568 S.o2    1  ZINC000518937710    2.4000
      6 C6         -0.8117   -2.5229   48.4836 C.3     1  ZINC000518937710   -0.6600
      7 O7         -2.5449   -0.5383   48.5808 O.2     1  ZINC000518937710   -0.9200
      8 O8         -2.1499   -1.6011   46.4072 O.2     1  ZINC000518937710   -0.9300
      9 N9          0.2597    2.2815   46.6498 N.am    1  ZINC000518937710   -0.9600
     10 C10         0.4801    2.5423   45.2252 C.3     1  ZINC000518937710    0.0800
     11 C11         1.9042    2.3816   44.6896 C.3     1  ZINC000518937710   -0.1800
     12 C12         0.8323    1.3490   44.3348 C.3     1  ZINC000518937710   -0.1800
     13 S13         1.2435    2.9835   47.7820 S.o2    1  ZINC000518937710    2.6900
     14 O14         1.7395    1.9272   48.5930 O.2     1  ZINC000518937710   -0.9400
     15 O15         2.0870    3.8842   47.0775 O.2     1  ZINC000518937710   -0.9400
     16 C16         0.2198    3.9709   48.8222 C.ar    1  ZINC000518937710   -0.6400
     17 C17        -0.9585    4.5006   48.3301 C.ar    1  ZINC000518937710   -0.0300
     18 C18        -1.7642    5.2757   49.1433 C.ar    1  ZINC000518937710   -0.1300
     19 C19        -1.3953    5.5239   50.4522 C.ar    1  ZINC000518937710   -0.0300
     20 C20        -0.2158    4.9963   50.9521 C.ar    1  ZINC000518937710    0.0200
     21 C21         0.5933    4.2112   50.1344 C.ar    1  ZINC000518937710    0.1900
     22 O22         1.6852    3.8156   50.8517 O.3     1  ZINC000518937710   -0.2800
     23 C23         1.7407    4.7001   51.9866 C.3     1  ZINC000518937710    0.5700
     24 F24         2.2238    4.0251   53.1127 F       1  ZINC000518937710   -0.1200
     25 F25         2.5383    5.8140   51.7032 F       1  ZINC000518937710   -0.1400
     26 O26         0.3669    5.0889   52.1830 O.3     1  ZINC000518937710   -0.2900
     27 H27        -1.4207    0.9628   45.0476 H       1  ZINC000518937710    0.1000
     28 H28        -2.6775    0.6389   46.2656 H       1  ZINC000518937710    0.0800
     29 H29        -2.3045    2.3147   45.7958 H       1  ZINC000518937710    0.0700
     30 H30         0.2918   -0.3418   46.4827 H       1  ZINC000518937710    0.1600
     31 H31         0.3731    0.0310   48.2213 H       1  ZINC000518937710    0.1400
     32 H32        -0.4138   -2.1850   49.4405 H       1  ZINC000518937710    0.1300
     33 H33        -1.5220   -3.3327   48.6512 H       1  ZINC000518937710    0.1300
     34 H34         0.0049   -2.8800   47.8562 H       1  ZINC000518937710    0.1300
     35 H35        -0.1354    3.3301   44.7908 H       1  ZINC000518937710    0.1500
     36 H36         2.2260    3.0637   43.9027 H       1  ZINC000518937710    0.1100
     37 H37         2.6772    2.0817   45.3973 H       1  ZINC000518937710    0.1000
     38 H38         0.9001    0.3699   44.8089 H       1  ZINC000518937710    0.1000
     39 H39         0.4489    1.3520   43.3144 H       1  ZINC000518937710    0.1000
     40 H40        -1.2500    4.3087   47.3080 H       1  ZINC000518937710    0.1600
     41 H41        -2.6836    5.6884   48.7550 H       1  ZINC000518937710    0.1600
     42 H42        -2.0267    6.1298   51.0852 H       1  ZINC000518937710    0.1500
@<TRIPOS>BOND
     1     1     2    1
     2     1    27    1
     3     1    28    1
     4     1    29    1
     5     2     3    1
     6     2     4    1
     7     2     9    1
     8     4     5    1
     9     4    30    1
    10     4    31    1
    11     5     6    1
    12     5     7    2
    13     5     8    2
    14     6    32    1
    15     6    33    1
    16     6    34    1
    17     9    10    1
    18     9    13   am
    19    10    12    1
    20    10    11    1
    21    10    35    1
    22    11    12    1
    23    11    36    1
    24    11    37    1
    25    12    38    1
    26    12    39    1
    27    13    14    2
    28    13    15    2
    29    13    16    1
    30    16    21   ar
    31    16    17   ar
    32    17    18   ar
    33    17    40    1
    34    18    19   ar
    35    18    41    1
    36    19    20   ar
    37    19    42    1
    38    20    26    1
    39    20    21   ar
    40    21    22    1
    41    22    23    1
    42    23    24    1
    43    23    25    1
    44    23    26    1
@<TRIPOS>SUBSTRUCTURE
     1 ZINC000518937710        1 TEMP              0 ****  ****    0 ROOT


##########                                Name:    ZINC000373864439
##########                DOCK_Rotatable_Bonds:                   7
##########                         Heavy_Atoms:                  23
##########                    Molecular_Weight:              344.45
##########                DOCK_Rotatable_Bonds:                   7
##########                       Formal_Charge:          -0.0300001
##########                     HBond_Acceptors:                   7
##########                        HBond_Donors:                   1
##########                         Heavy_Atoms:                  23
##########                          Grid_Score:          -26.745768
##########                     Grid_vdw_energy:          -26.514576
##########                      Grid_es_energy:           -0.231191
##########           Internal_energy_repulsive:           21.403742

@<TRIPOS>MOLECULE
ZINC000373864439
 48 49 1 0 0
SMALL
USER_CHARGES


@<TRIPOS>ATOM
      1 C1         -2.4337    2.3702   57.1259 C.3     1  ZINC000373864439   -0.1500
      2 C2         -2.1880    2.6369   55.6395 C.3     1  ZINC000373864439   -0.6300
      3 S3         -0.5154    3.3014   55.4128 S.o2    1  ZINC000373864439    2.6100
      4 O4         -0.4152    4.6023   55.9757 O.2     1  ZINC000373864439   -0.9500
      5 O5          0.4589    2.3054   55.6920 O.2     1  ZINC000373864439   -0.9600
      6 N6         -0.3878    3.5515   53.7808 N.am    1  ZINC000373864439   -1.1200
      7 C7          0.8515    4.0927   53.2174 C.3     1  ZINC000373864439    0.1100
      8 C8          0.5405    4.8245   51.9102 C.3     1  ZINC000373864439    0.0500
      9 N9          0.0920    3.8555   50.9013 N.3     1  ZINC000373864439   -0.5300
     10 C10         0.9992    3.8402   49.7466 C.3     1  ZINC000373864439    0.0400
     11 C11         0.5861    2.7224   48.7864 C.3     1  ZINC000373864439   -0.1300
     12 C12        -0.8544    2.9594   48.3245 C.3     1  ZINC000373864439    0.1800
     13 F13        -0.9281    4.1691   47.6256 F       1  ZINC000373864439   -0.2100
     14 C14        -1.2869    1.8306   47.4245 C.ar    1  ZINC000373864439   -0.1500
     15 C15        -2.2096    0.9051   47.8713 C.ar    1  ZINC000373864439   -0.0700
     16 C16        -2.6066   -0.1311   47.0461 C.ar    1  ZINC000373864439   -0.1600
     17 C17        -2.0815   -0.2433   45.7722 C.ar    1  ZINC000373864439   -0.0700
     18 C18        -1.1585    0.6803   45.3203 C.ar    1  ZINC000373864439   -0.2100
     19 C19        -0.7628    1.7237   46.1442 C.ar    1  ZINC000373864439    0.1400
     20 O20         0.1449    2.6334   45.7022 O.3     1  ZINC000373864439   -0.3100
     21 C21         0.6420    2.4609   44.3736 C.3     1  ZINC000373864439    0.0200
     22 C22        -1.7715    3.0193   49.5492 C.3     1  ZINC000373864439   -0.1300
     23 C23        -1.2901    4.1285   50.4871 C.3     1  ZINC000373864439    0.0600
     24 H24        -2.3341    3.3015   57.6835 H       1  ZINC000373864439    0.0700
     25 H25        -3.4387    1.9708   57.2621 H       1  ZINC000373864439    0.0800
     26 H26        -1.7033    1.6482   57.4912 H       1  ZINC000373864439    0.0700
     27 H27        -2.2875    1.7055   55.0820 H       1  ZINC000373864439    0.1300
     28 H28        -2.9184    3.3588   55.2743 H       1  ZINC000373864439    0.1300
     29 H29        -1.1337    3.3397   53.1979 H       1  ZINC000373864439    0.4200
     30 H30         1.2990    4.7894   53.9263 H       1  ZINC000373864439    0.0700
     31 H31         1.5476    3.2774   53.0205 H       1  ZINC000373864439    0.0900
     32 H32        -0.2459    5.5592   52.0832 H       1  ZINC000373864439    0.0900
     33 H33         1.4383    5.3302   51.5545 H       1  ZINC000373864439    0.0400
     34 H34         0.9472    4.7993   49.2312 H       1  ZINC000373864439    0.0400
     35 H35         2.0195    3.6667   50.0885 H       1  ZINC000373864439    0.0900
     36 H36         1.2500    2.7214   47.9220 H       1  ZINC000373864439    0.0800
     37 H37         0.6510    1.7616   49.2970 H       1  ZINC000373864439    0.1000
     38 H38        -2.6212    0.9904   48.8662 H       1  ZINC000373864439    0.1300
     39 H39        -3.3276   -0.8542   47.3976 H       1  ZINC000373864439    0.1300
     40 H40        -2.3929   -1.0536   45.1296 H       1  ZINC000373864439    0.1300
     41 H41        -0.7485    0.5921   44.3251 H       1  ZINC000373864439    0.1300
     42 H42         1.3566    3.2523   44.1474 H       1  ZINC000373864439    0.1000
     43 H43         1.1353    1.4922   44.2931 H       1  ZINC000373864439    0.0600
     44 H44        -0.1865    2.5066   43.6668 H       1  ZINC000373864439    0.0600
     45 H45        -2.7920    3.2305   49.2296 H       1  ZINC000373864439    0.0800
     46 H46        -1.7436    2.0632   50.0717 H       1  ZINC000373864439    0.1000
     47 H47        -1.9325    4.1644   51.3670 H       1  ZINC000373864439    0.0800
     48 H48        -1.3313    5.0863   49.9683 H       1  ZINC000373864439    0.0400
@<TRIPOS>BOND
     1     1     2    1
     2     1    24    1
     3     1    25    1
     4     1    26    1
     5     2     3    1
     6     2    27    1
     7     2    28    1
     8     3     4    2
     9     3     5    2
    10     3     6   am
    11     6     7    1
    12     6    29    1
    13     7     8    1
    14     7    30    1
    15     7    31    1
    16     8     9    1
    17     8    32    1
    18     8    33    1
    19     9    23    1
    20     9    10    1
    21    10    11    1
    22    10    34    1
    23    10    35    1
    24    11    12    1
    25    11    36    1
    26    11    37    1
    27    12    13    1
    28    12    14    1
    29    12    22    1
    30    14    19   ar
    31    14    15   ar
    32    15    16   ar
    33    15    38    1
    34    16    17   ar
    35    16    39    1
    36    17    18   ar
    37    17    40    1
    38    18    19   ar
    39    18    41    1
    40    19    20    1
    41    20    21    1
    42    21    42    1
    43    21    43    1
    44    21    44    1
    45    22    23    1
    46    22    45    1
    47    22    46    1
    48    23    47    1
    49    23    48    1
@<TRIPOS>SUBSTRUCTURE
     1 ZINC000373864439        1 TEMP              0 ****  ****    0 ROOT


##########                                Name:    ZINC000179211660
##########                DOCK_Rotatable_Bonds:                   6
##########                         Heavy_Atoms:                  23
##########                    Molecular_Weight:             385.208
##########                DOCK_Rotatable_Bonds:                   6
##########                       Formal_Charge:        -1.78814e-07
##########                     HBond_Acceptors:                   6
##########                        HBond_Donors:                   1
##########                         Heavy_Atoms:                  23
##########                          Grid_Score:          -26.727657
##########                     Grid_vdw_energy:          -24.017551
##########                      Grid_es_energy:           -2.710106
##########           Internal_energy_repulsive:           13.820497

@<TRIPOS>MOLECULE
ZINC000179211660
 38 39 1 0 0
SMALL
USER_CHARGES


@<TRIPOS>ATOM
      1 C1         -5.4089    4.2020   57.3138 C.3     1  ZINC000179211660    0.0300
      2 O2         -4.9820    4.4225   55.9680 O.3     1  ZINC000179211660   -0.2700
      3 C3         -5.6728    3.7816   54.9887 C.ar    1  ZINC000179211660    0.1500
      4 C4         -6.7515    2.9728   55.3148 C.ar    1  ZINC000179211660   -0.2200
      5 C5         -7.4525    2.3226   54.3173 C.ar    1  ZINC000179211660   -0.0700
      6 C6         -7.0792    2.4771   52.9953 C.ar    1  ZINC000179211660   -0.1700
      7 C7         -6.0039    3.2825   52.6676 C.ar    1  ZINC000179211660   -0.0700
      8 C8         -5.3037    3.9396   53.6605 C.ar    1  ZINC000179211660   -0.1500
      9 C9         -4.1323    4.8175   53.3027 C.3     1  ZINC000179211660    0.1800
     10 N10        -2.8970    4.0321   53.3633 N.am    1  ZINC000179211660   -0.6200
     11 C11        -2.1667    3.9120   54.6276 C.3     1  ZINC000179211660    0.0700
     12 C12        -2.4324    3.4203   52.2560 C.2     1  ZINC000179211660    0.7000
     13 O13        -1.4080    2.7672   52.3066 O.2     1  ZINC000179211660   -0.5300
     14 N14        -3.1034    3.5322   51.0925 N.am    1  ZINC000179211660   -0.6800
     15 C15        -2.6205    2.8962   49.9413 C.ar    1  ZINC000179211660    0.1900
     16 C16        -3.0247    1.6035   49.6404 C.ar    1  ZINC000179211660   -0.1400
     17 C17        -2.5467    0.9777   48.5025 C.ar    1  ZINC000179211660    0.1500
     18 F18        -2.9399   -0.2810   48.2088 F       1  ZINC000179211660   -0.1100
     19 C19        -1.6659    1.6410   47.6641 C.ar    1  ZINC000179211660   -0.1300
     20 Br20       -1.0151    0.7831   46.1096 Br      1  ZINC000179211660   -0.0100
     21 C21        -1.2618    2.9304   47.9620 C.ar    1  ZINC000179211660   -0.0700
     22 C22        -1.7399    3.5616   49.0953 C.ar    1  ZINC000179211660    0.0600
     23 F23        -1.3449    4.8206   49.3855 F       1  ZINC000179211660   -0.1300
     24 H24        -4.7748    4.7706   57.9940 H       1  ZINC000179211660    0.1000
     25 H25        -6.4435    4.5266   57.4246 H       1  ZINC000179211660    0.0500
     26 H26        -5.3340    3.1403   57.5494 H       1  ZINC000179211660    0.0500
     27 H27        -7.0431    2.8512   56.3476 H       1  ZINC000179211660    0.1300
     28 H28        -8.2924    1.6928   54.5708 H       1  ZINC000179211660    0.1200
     29 H29        -7.6281    1.9678   52.2171 H       1  ZINC000179211660    0.1200
     30 H30        -5.7140    3.4014   51.6340 H       1  ZINC000179211660    0.1300
     31 H31        -4.2656    5.2077   52.2937 H       1  ZINC000179211660    0.0900
     32 H32        -4.0707    5.6465   54.0077 H       1  ZINC000179211660    0.1000
     33 H33        -2.5306    3.0432   55.1762 H       1  ZINC000179211660    0.0600
     34 H34        -1.1028    3.7930   54.4228 H       1  ZINC000179211660    0.0600
     35 H35        -2.3235    4.8104   55.2246 H       1  ZINC000179211660    0.0800
     36 H36        -3.9206    4.0532   51.0521 H       1  ZINC000179211660    0.4100
     37 H37        -3.7115    1.0860   50.2937 H       1  ZINC000179211660    0.1800
     38 H38        -0.5750    3.4454   47.3066 H       1  ZINC000179211660    0.1600
@<TRIPOS>BOND
     1     1     2    1
     2     1    24    1
     3     1    25    1
     4     1    26    1
     5     2     3    1
     6     3     8   ar
     7     3     4   ar
     8     4     5   ar
     9     4    27    1
    10     5     6   ar
    11     5    28    1
    12     6     7   ar
    13     6    29    1
    14     7     8   ar
    15     7    30    1
    16     8     9    1
    17     9    10    1
    18     9    31    1
    19     9    32    1
    20    10    11    1
    21    10    12   am
    22    11    33    1
    23    11    34    1
    24    11    35    1
    25    12    13    2
    26    12    14   am
    27    14    15    1
    28    14    36    1
    29    15    22   ar
    30    15    16   ar
    31    16    17   ar
    32    16    37    1
    33    17    18    1
    34    17    19   ar
    35    19    20    1
    36    19    21   ar
    37    21    22   ar
    38    21    38    1
    39    22    23    1
@<TRIPOS>SUBSTRUCTURE
     1 ZINC000179211660        1 TEMP              0 ****  ****    0 ROOT


##########                                Name:    ZINC000329637067
##########                DOCK_Rotatable_Bonds:                   5
##########                         Heavy_Atoms:                  26
##########                    Molecular_Weight:             362.429
##########                DOCK_Rotatable_Bonds:                   5
##########                       Formal_Charge:           0.0199998
##########                     HBond_Acceptors:                   8
##########                        HBond_Donors:                   0
##########                         Heavy_Atoms:                  26
##########                          Grid_Score:          -26.696148
##########                     Grid_vdw_energy:          -27.348938
##########                      Grid_es_energy:            0.652790
##########           Internal_energy_repulsive:           25.993881

@<TRIPOS>MOLECULE
ZINC000329637067
 52 54 1 0 0
SMALL
USER_CHARGES


@<TRIPOS>ATOM
      1 C1        -10.4165    1.7260   55.3417 C.3     1  ZINC000329637067   -0.1300
      2 C2        -10.5968    0.3186   54.8338 C.2     1  ZINC000329637067    0.2200
      3 C3        -10.3862    0.0282   53.5216 C.2     1  ZINC000329637067   -0.2900
      4 C4        -10.5616   -1.2867   53.0802 C.2     1  ZINC000329637067    0.2800
      5 C5        -10.3340   -1.6338   51.6314 C.3     1  ZINC000329637067   -0.1200
      6 N6        -10.9258   -2.2218   53.9340 N.2     1  ZINC000329637067   -0.5500
      7 C7        -11.1310   -1.9306   55.2209 C.2     1  ZINC000329637067    0.6400
      8 O8        -11.4677   -2.8144   55.9908 O.2     1  ZINC000329637067   -0.5300
      9 N9        -10.9661   -0.6765   55.6818 N.am    1  ZINC000329637067   -0.5000
     10 C10       -11.1968   -0.3820   57.0982 C.3     1  ZINC000329637067    0.0700
     11 C11       -12.6569   -0.0792   57.3170 C.2     1  ZINC000329637067    0.5100
     12 O12       -13.4426   -0.1868   56.3993 O.2     1  ZINC000329637067   -0.5200
     13 N13       -13.0894    0.3110   58.5323 N.am    1  ZINC000329637067   -0.6100
     14 C14       -14.5098    0.6097   58.7610 C.3     1  ZINC000329637067    0.1000
     15 C15       -15.0025   -0.2190   59.9514 C.3     1  ZINC000329637067   -0.1400
     16 C16       -14.1019    0.0460   61.1600 C.3     1  ZINC000329637067   -0.1000
     17 C17       -12.6690   -0.3812   60.8341 C.3     1  ZINC000329637067   -0.1200
     18 H18       -12.6556   -1.4390   60.5711 H       1  ZINC000329637067    0.1000
     19 C19       -11.7897   -0.1507   62.0361 C.2     1  ZINC000329637067    0.5300
     20 O20       -12.1399    0.6196   62.9048 O.2     1  ZINC000329637067   -0.5300
     21 N21       -10.6140   -0.8005   62.1454 N.am    1  ZINC000329637067   -0.6200
     22 C22       -10.1650   -1.7350   61.1011 C.3     1  ZINC000329637067    0.0800
     23 C23        -8.7306   -1.3657   60.7060 C.3     1  ZINC000329637067    0.0500
     24 O24        -7.9222   -1.2927   61.8829 O.3     1  ZINC000329637067   -0.3800
     25 C25        -8.3273   -0.2822   62.8095 C.3     1  ZINC000329637067    0.0500
     26 C26        -9.7385   -0.5917   63.3096 C.3     1  ZINC000329637067    0.0700
     27 C27       -12.1508    0.4398   59.6552 C.3     1  ZINC000329637067    0.1200
     28 H28        -9.7008    1.7266   56.1639 H       1  ZINC000329637067    0.0900
     29 H29       -10.0444    2.3583   54.5357 H       1  ZINC000329637067    0.1000
     30 H30       -11.3738    2.1108   55.6932 H       1  ZINC000329637067    0.0900
     31 H31       -10.0882    0.8027   52.8304 H       1  ZINC000329637067    0.1600
     32 H32        -9.2917   -1.9173   51.4852 H       1  ZINC000329637067    0.1000
     33 H33       -10.9796   -2.4662   51.3515 H       1  ZINC000329637067    0.0900
     34 H34       -10.5660   -0.7690   51.0098 H       1  ZINC000329637067    0.0900
     35 H35       -10.9105   -1.2444   57.7000 H       1  ZINC000329637067    0.1200
     36 H36       -10.5989    0.4808   57.3919 H       1  ZINC000329637067    0.1300
     37 H37       -14.6293    1.6708   58.9799 H       1  ZINC000329637067    0.0800
     38 H38       -15.0854    0.3508   57.8722 H       1  ZINC000329637067    0.0900
     39 H39       -16.0272    0.0637   60.1923 H       1  ZINC000329637067    0.0900
     40 H40       -14.9672   -1.2783   59.6967 H       1  ZINC000329637067    0.0700
     41 H41       -14.1184    1.1094   61.3989 H       1  ZINC000329637067    0.0800
     42 H42       -14.4651   -0.5237   62.0153 H       1  ZINC000329637067    0.0800
     43 H43       -10.1889   -2.7545   61.4859 H       1  ZINC000329637067    0.0800
     44 H44       -10.8175   -1.6549   60.2317 H       1  ZINC000329637067    0.1000
     45 H45        -8.3302   -2.1265   60.0360 H       1  ZINC000329637067    0.1100
     46 H46        -8.7290   -0.3989   60.2028 H       1  ZINC000329637067    0.0600
     47 H47        -7.6369   -0.2635   63.6527 H       1  ZINC000329637067    0.1100
     48 H48        -8.3243    0.6885   62.3139 H       1  ZINC000329637067    0.0600
     49 H49       -10.1087    0.2434   63.9041 H       1  ZINC000329637067    0.1000
     50 H50        -9.7224   -1.4967   63.9169 H       1  ZINC000329637067    0.0800
     51 H51       -11.1692    0.0715   59.3568 H       1  ZINC000329637067    0.1000
     52 H52       -12.0776    1.4882   59.9442 H       1  ZINC000329637067    0.0800
@<TRIPOS>BOND
     1     1     2    1
     2     1    28    1
     3     1    29    1
     4     1    30    1
     5     2     9    1
     6     2     3    2
     7     3     4    1
     8     3    31    1
     9     4     5    1
    10     4     6    2
    11     5    32    1
    12     5    33    1
    13     5    34    1
    14     6     7    1
    15     7     8    2
    16     7     9   am
    17     9    10    1
    18    10    11    1
    19    10    35    1
    20    10    36    1
    21    11    12    2
    22    11    13   am
    23    13    27    1
    24    13    14    1
    25    14    15    1
    26    14    37    1
    27    14    38    1
    28    15    16    1
    29    15    39    1
    30    15    40    1
    31    16    17    1
    32    16    41    1
    33    16    42    1
    34    17    18    1
    35    17    19    1
    36    17    27    1
    37    19    20    2
    38    19    21   am
    39    21    26    1
    40    21    22    1
    41    22    23    1
    42    22    43    1
    43    22    44    1
    44    23    24    1
    45    23    45    1
    46    23    46    1
    47    24    25    1
    48    25    26    1
    49    25    47    1
    50    25    48    1
    51    26    49    1
    52    26    50    1
    53    27    51    1
    54    27    52    1
@<TRIPOS>SUBSTRUCTURE
     1 ZINC000329637067        1 TEMP              0 ****  ****    0 ROOT


##########                                Name:    ZINC000866034032
##########                DOCK_Rotatable_Bonds:                   4
##########                         Heavy_Atoms:                  23
##########                    Molecular_Weight:             383.242
##########                DOCK_Rotatable_Bonds:                   4
##########                       Formal_Charge:           0.0199999
##########                     HBond_Acceptors:                   6
##########                        HBond_Donors:                   1
##########                         Heavy_Atoms:                  23
##########                          Grid_Score:          -26.686657
##########                     Grid_vdw_energy:          -25.098583
##########                      Grid_es_energy:           -1.588075
##########           Internal_energy_repulsive:           12.559196

@<TRIPOS>MOLECULE
ZINC000866034032
 42 44 1 0 0
SMALL
USER_CHARGES


@<TRIPOS>ATOM
      1 C1         -3.5603    4.5288   56.5250 C.3     1  ZINC000866034032   -0.1300
      2 C2         -3.8623    4.9335   55.0807 C.3     1  ZINC000866034032   -0.0800
      3 C3         -3.1701    6.2357   54.6731 C.3     1  ZINC000866034032   -0.1300
      4 C4         -3.6694    3.7920   54.0705 C.3     1  ZINC000866034032    0.1400
      5 H5         -2.9729    3.0246   54.4085 H       1  ZINC000866034032    0.1100
      6 N6         -3.3858    4.2563   52.7103 N.am    1  ZINC000866034032   -0.7000
      7 C7         -2.3695    3.7135   52.0111 C.2     1  ZINC000866034032    0.5100
      8 O8         -1.6888    2.8416   52.5085 O.2     1  ZINC000866034032   -0.5300
      9 C9         -2.0788    4.1898   50.6112 C.3     1  ZINC000866034032   -0.1100
     10 C10        -1.2471    3.1590   49.8923 C.ar    1  ZINC000866034032   -0.0500
     11 C11         0.1107    3.3590   49.7284 C.ar    1  ZINC000866034032   -0.0500
     12 C12         0.8740    2.4139   49.0686 C.ar    1  ZINC000866034032   -0.0900
     13 C13         0.2789    1.2681   48.5729 C.ar    1  ZINC000866034032   -0.0500
     14 Br14        1.3226   -0.0252   47.6709 Br      1  ZINC000866034032    0.0200
     15 C15        -1.0801    1.0683   48.7376 C.ar    1  ZINC000866034032   -0.0200
     16 N16        -1.7174   -0.1580   48.2078 N.pl3   1  ZINC000866034032    0.0200
     17 O17        -2.9139   -0.3338   48.3529 O.2     1  ZINC000866034032   -0.1600
     18 O18        -1.0454   -0.9913   47.6267 O.2     1  ZINC000866034032   -0.1300
     19 C19        -1.8414    2.0111   49.4019 C.ar    1  ZINC000866034032   -0.0300
     20 C20        -5.1448    3.4264   54.3009 C.3     1  ZINC000866034032   -0.1500
     21 H21        -5.3421    2.6569   55.0473 H       1  ZINC000866034032    0.1200
     22 C22        -5.9421    3.2903   52.9845 C.3     1  ZINC000866034032   -0.1400
     23 C23        -6.5502    4.6930   52.7651 C.3     1  ZINC000866034032    0.0500
     24 O24        -5.6810    5.5895   53.4903 O.3     1  ZINC000866034032   -0.3600
     25 C25        -5.3580    4.8994   54.7342 C.3     1  ZINC000866034032    0.0600
     26 H26        -6.0561    5.0772   55.5522 H       1  ZINC000866034032    0.1000
     27 H27        -4.1930    3.6869   56.8062 H       1  ZINC000866034032    0.0600
     28 H28        -2.5127    4.2404   56.6100 H       1  ZINC000866034032    0.0700
     29 H29        -3.7603    5.3708   57.1877 H       1  ZINC000866034032    0.0700
     30 H30        -2.0954    6.0689   54.6013 H       1  ZINC000866034032    0.0600
     31 H31        -3.5523    6.5632   53.7062 H       1  ZINC000866034032    0.0600
     32 H32        -3.3695    7.0028   55.4214 H       1  ZINC000866034032    0.0600
     33 H33        -3.9294    4.9545   52.3128 H       1  ZINC000866034032    0.4100
     34 H34        -3.0166    4.3377   50.0756 H       1  ZINC000866034032    0.1100
     35 H35        -1.5324    5.1321   50.6541 H       1  ZINC000866034032    0.1200
     36 H36         0.5753    4.2538   50.1155 H       1  ZINC000866034032    0.1500
     37 H37         1.9348    2.5705   48.9399 H       1  ZINC000866034032    0.1600
     38 H38        -2.9023    1.8550   49.5309 H       1  ZINC000866034032    0.1600
     39 H39        -5.2774    3.0292   52.1611 H       1  ZINC000866034032    0.0800
     40 H40        -6.7303    2.5449   53.0910 H       1  ZINC000866034032    0.0800
     41 H41        -6.5537    4.9434   51.7043 H       1  ZINC000866034032    0.0900
     42 H42        -7.5616    4.7355   53.1693 H       1  ZINC000866034032    0.0600
@<TRIPOS>BOND
     1     1     2    1
     2     1    27    1
     3     1    28    1
     4     1    29    1
     5     2    25    1
     6     2     3    1
     7     2     4    1
     8     3    30    1
     9     3    31    1
    10     3    32    1
    11     4     5    1
    12     4     6    1
    13     4    20    1
    14     6     7   am
    15     6    33    1
    16     7     8    2
    17     7     9    1
    18     9    10    1
    19     9    34    1
    20     9    35    1
    21    10    19   ar
    22    10    11   ar
    23    11    12   ar
    24    11    36    1
    25    12    13   ar
    26    12    37    1
    27    13    14    1
    28    13    15   ar
    29    15    16    1
    30    15    19   ar
    31    16    17    2
    32    16    18    2
    33    19    38    1
    34    20    21    1
    35    20    25    1
    36    20    22    1
    37    22    23    1
    38    22    39    1
    39    22    40    1
    40    23    24    1
    41    23    41    1
    42    23    42    1
    43    24    25    1
    44    25    26    1
@<TRIPOS>SUBSTRUCTURE
     1 ZINC000866034032        1 TEMP              0 ****  ****    0 ROOT


##########                                Name:    ZINC001625935330
##########                DOCK_Rotatable_Bonds:                   5
##########                         Heavy_Atoms:                  25
##########                    Molecular_Weight:             327.385
##########                DOCK_Rotatable_Bonds:                   5
##########                       Formal_Charge:           0.0199995
##########                     HBond_Acceptors:                   4
##########                        HBond_Donors:                   1
##########                         Heavy_Atoms:                  25
##########                          Grid_Score:          -26.616104
##########                     Grid_vdw_energy:          -24.518593
##########                      Grid_es_energy:           -2.097511
##########           Internal_energy_repulsive:            5.830082

@<TRIPOS>MOLECULE
ZINC001625935330
 42 44 1 0 0
SMALL
USER_CHARGES


@<TRIPOS>ATOM
      1 C1         -2.4801    4.8243   49.8417 C.3     1  ZINC001625935330   -0.1600
      2 C2         -1.6476    3.7718   50.5768 C.3     1  ZINC001625935330    0.1800
      3 H3         -0.6474    4.1637   50.7613 H       1  ZINC001625935330    0.1000
      4 N4         -2.2882    3.4470   51.8536 N.am    1  ZINC001625935330   -0.7100
      5 C5         -1.9546    4.1285   52.9675 C.2     1  ZINC001625935330    0.5800
      6 O6         -1.1214    5.0114   52.9130 O.2     1  ZINC001625935330   -0.5300
      7 C7         -2.6038    3.8013   54.2586 C.ar    1  ZINC001625935330    0.0800
      8 C8         -3.9690    3.5397   54.2959 C.ar    1  ZINC001625935330   -0.1000
      9 C9         -4.5651    3.2322   55.5221 C.ar    1  ZINC001625935330    0.0000
     10 C10        -6.0180    2.9454   55.6117 C.ar    1  ZINC001625935330   -0.0600
     11 C11        -6.9262    3.6959   54.8676 C.ar    1  ZINC001625935330   -0.1000
     12 C12        -8.2766    3.4244   54.9544 C.ar    1  ZINC001625935330   -0.1200
     13 C13        -8.7291    2.4094   55.7780 C.ar    1  ZINC001625935330   -0.1100
     14 C14        -7.8320    1.6611   56.5190 C.ar    1  ZINC001625935330   -0.1200
     15 C15        -6.4790    1.9205   56.4358 C.ar    1  ZINC001625935330   -0.1000
     16 C16        -3.7568    3.2017   56.6611 C.ar    1  ZINC001625935330   -0.1400
     17 C17        -2.4060    3.4743   56.5380 C.ar    1  ZINC001625935330    0.1100
     18 N18        -1.8748    3.7554   55.3678 N.ar    1  ZINC001625935330   -0.4600
     19 C19        -1.5518    2.5275   49.7321 C.ar    1  ZINC001625935330   -0.0900
     20 C20        -2.6876    1.7830   49.4686 C.ar    1  ZINC001625935330   -0.0800
     21 C21        -2.6085    0.6391   48.6939 C.ar    1  ZINC001625935330   -0.1100
     22 C22        -1.3952    0.2338   48.1785 C.ar    1  ZINC001625935330   -0.0700
     23 C23        -0.2446    0.9809   48.4401 C.ar    1  ZINC001625935330   -0.0200
     24 C24         1.0187    0.5663   47.9081 C.1     1  ZINC001625935330    0.2500
     25 N25         2.0208    0.2373   47.4862 N.1     1  ZINC001625935330   -0.4100
     26 C26        -0.3324    2.1367   49.2185 C.ar    1  ZINC001625935330   -0.0600
     27 H27        -2.0035    5.0660   48.8917 H       1  ZINC001625935330    0.0700
     28 H28        -3.4803    4.4325   49.6572 H       1  ZINC001625935330    0.0600
     29 H29        -2.5495    5.7243   50.4527 H       1  ZINC001625935330    0.0700
     30 H30        -2.9525    2.7416   51.8974 H       1  ZINC001625935330    0.4100
     31 H31        -4.5592    3.5739   53.3921 H       1  ZINC001625935330    0.1500
     32 H32        -6.5740    4.4889   54.2245 H       1  ZINC001625935330    0.1300
     33 H33        -8.9814    4.0057   54.3785 H       1  ZINC001625935330    0.1300
     34 H34        -9.7867    2.2005   55.8433 H       1  ZINC001625935330    0.1300
     35 H35        -8.1907    0.8700   57.1606 H       1  ZINC001625935330    0.1300
     36 H36        -5.7794    1.3355   57.0144 H       1  ZINC001625935330    0.1300
     37 H37        -4.1815    2.9684   57.6263 H       1  ZINC001625935330    0.1400
     38 H38        -1.7771    3.4523   57.4158 H       1  ZINC001625935330    0.1700
     39 H39        -3.6403    2.0958   49.8698 H       1  ZINC001625935330    0.1300
     40 H40        -3.4990    0.0620   48.4928 H       1  ZINC001625935330    0.1400
     41 H41        -1.3347   -0.6593   47.5744 H       1  ZINC001625935330    0.1400
     42 H42         0.5535    2.7190   49.4245 H       1  ZINC001625935330    0.1400
@<TRIPOS>BOND
     1     1     2    1
     2     1    27    1
     3     1    28    1
     4     1    29    1
     5     2     3    1
     6     2     4    1
     7     2    19    1
     8     4     5   am
     9     4    30    1
    10     5     6    2
    11     5     7    1
    12     7    18   ar
    13     7     8   ar
    14     8     9   ar
    15     8    31    1
    16     9    10    1
    17     9    16   ar
    18    10    15   ar
    19    10    11   ar
    20    11    12   ar
    21    11    32    1
    22    12    13   ar
    23    12    33    1
    24    13    14   ar
    25    13    34    1
    26    14    15   ar
    27    14    35    1
    28    15    36    1
    29    16    17   ar
    30    16    37    1
    31    17    18   ar
    32    17    38    1
    33    19    26   ar
    34    19    20   ar
    35    20    21   ar
    36    20    39    1
    37    21    22   ar
    38    21    40    1
    39    22    23   ar
    40    22    41    1
    41    23    24    1
    42    23    26   ar
    43    24    25    3
    44    26    42    1
@<TRIPOS>SUBSTRUCTURE
     1 ZINC001625935330        1 TEMP              0 ****  ****    0 ROOT


##########                                Name:    ZINC000863216249
##########                DOCK_Rotatable_Bonds:                   5
##########                         Heavy_Atoms:                  23
##########                    Molecular_Weight:             396.351
##########                DOCK_Rotatable_Bonds:                   5
##########                       Formal_Charge:         -0.00999944
##########                     HBond_Acceptors:                   5
##########                        HBond_Donors:                   1
##########                         Heavy_Atoms:                  23
##########                          Grid_Score:          -26.587931
##########                     Grid_vdw_energy:          -25.116701
##########                      Grid_es_energy:           -1.471230
##########           Internal_energy_repulsive:           42.478954

@<TRIPOS>MOLECULE
ZINC000863216249
 45 48 1 0 0
SMALL
USER_CHARGES


@<TRIPOS>ATOM
      1 S1        -14.1305   -1.2408   61.4650 S.2     1  ZINC000863216249   -0.5900
      2 C2        -12.8857   -1.4107   60.3020 C.2     1  ZINC000863216249    0.5600
      3 N3        -11.6103   -1.1285   60.6338 N.am    1  ZINC000863216249   -0.6800
      4 C4        -11.2899   -0.6705   61.9880 C.3     1  ZINC000863216249    0.1200
      5 C5         -9.8784   -0.0805   62.0062 C.3     1  ZINC000863216249    0.0400
      6 N6         -9.4549    0.1330   63.3966 N.3     1  ZINC000863216249   -0.5300
      7 C7         -9.8477    1.4691   63.8679 C.3     1  ZINC000863216249    0.0000
      8 C8         -9.4411    1.6267   65.3354 C.3     1  ZINC000863216249    0.0600
      9 O9         -8.0348    1.3996   65.4623 O.3     1  ZINC000863216249   -0.3800
     10 C10        -7.6174    0.1076   65.0130 C.3     1  ZINC000863216249    0.0600
     11 C11        -8.0056   -0.0654   63.5422 C.3     1  ZINC000863216249    0.0200
     12 N12       -13.1804   -1.8320   59.0561 N.am    1  ZINC000863216249   -0.5100
     13 C13       -12.2026   -2.0213   57.9787 C.3     1  ZINC000863216249    0.1200
     14 C14       -13.0254   -2.5043   56.7802 C.3     1  ZINC000863216249   -0.1100
     15 C15       -12.6846   -2.0825   55.3562 C.3     1  ZINC000863216249   -0.1500
     16 C16       -12.4778   -3.5337   55.7991 C.3     1  ZINC000863216249   -0.1500
     17 C17       -14.4485   -2.5568   57.2726 C.ar    1  ZINC000863216249   -0.0700
     18 C18       -15.6218   -2.9171   56.6384 C.ar    1  ZINC000863216249   -0.0800
     19 C19       -16.8225   -2.8791   57.3224 C.ar    1  ZINC000863216249   -0.1000
     20 C20       -16.8479   -2.4789   58.6464 C.ar    1  ZINC000863216249   -0.0700
     21 Br21      -18.4890   -2.4268   59.5844 Br      1  ZINC000863216249   -0.0400
     22 C22       -15.6791   -2.1181   59.2844 C.ar    1  ZINC000863216249   -0.0900
     23 C23       -14.4624   -2.1588   58.6022 C.ar    1  ZINC000863216249    0.1400
     24 H24       -10.9045   -1.2285   59.9759 H       1  ZINC000863216249    0.4000
     25 H25       -12.0065    0.0922   62.2927 H       1  ZINC000863216249    0.0900
     26 H26       -11.3405   -1.5129   62.6779 H       1  ZINC000863216249    0.1000
     27 H27        -9.1899   -0.7705   61.5186 H       1  ZINC000863216249    0.0900
     28 H28        -9.8757    0.8715   61.4753 H       1  ZINC000863216249    0.0400
     29 H29        -9.3465    2.2285   63.2677 H       1  ZINC000863216249    0.0500
     30 H30       -10.9275    1.5849   63.7748 H       1  ZINC000863216249    0.1000
     31 H31        -9.6788    2.6356   65.6725 H       1  ZINC000863216249    0.1000
     32 H32        -9.9831    0.9021   65.9430 H       1  ZINC000863216249    0.0600
     33 H33        -6.5361    0.0178   65.1172 H       1  ZINC000863216249    0.1000
     34 H34        -8.1064   -0.6612   65.6114 H       1  ZINC000863216249    0.0600
     35 H35        -7.7406   -1.0697   63.2116 H       1  ZINC000863216249    0.0900
     36 H36        -7.4749    0.6695   62.9369 H       1  ZINC000863216249    0.0500
     37 H37       -11.7092   -1.0780   57.7444 H       1  ZINC000863216249    0.0900
     38 H38       -11.4674   -2.7745   58.2620 H       1  ZINC000863216249    0.0900
     39 H39       -13.5142   -1.8757   54.6800 H       1  ZINC000863216249    0.1100
     40 H40       -11.7955   -1.4685   55.2119 H       1  ZINC000863216249    0.1100
     41 H41       -11.4528   -3.8741   55.9463 H       1  ZINC000863216249    0.1100
     42 H42       -13.1714   -4.2813   55.4143 H       1  ZINC000863216249    0.1100
     43 H43       -15.6010   -3.2290   55.6047 H       1  ZINC000863216249    0.1400
     44 H44       -17.7385   -3.1609   56.8243 H       1  ZINC000863216249    0.1400
     45 H45       -15.7053   -1.8062   60.3181 H       1  ZINC000863216249    0.1900
@<TRIPOS>BOND
     1     1     2    2
     2     2     3   am
     3     2    12   am
     4     3     4    1
     5     3    24    1
     6     4     5    1
     7     4    25    1
     8     4    26    1
     9     5     6    1
    10     5    27    1
    11     5    28    1
    12     6    11    1
    13     6     7    1
    14     7     8    1
    15     7    29    1
    16     7    30    1
    17     8     9    1
    18     8    31    1
    19     8    32    1
    20     9    10    1
    21    10    11    1
    22    10    33    1
    23    10    34    1
    24    11    35    1
    25    11    36    1
    26    12    23    1
    27    12    13    1
    28    13    14    1
    29    13    37    1
    30    13    38    1
    31    14    16    1
    32    14    15    1
    33    14    17    1
    34    15    16    1
    35    15    39    1
    36    15    40    1
    37    16    41    1
    38    16    42    1
    39    17    23   ar
    40    17    18   ar
    41    18    19   ar
    42    18    43    1
    43    19    20   ar
    44    19    44    1
    45    20    21    1
    46    20    22   ar
    47    22    23   ar
    48    22    45    1
@<TRIPOS>SUBSTRUCTURE
     1 ZINC000863216249        1 TEMP              0 ****  ****    0 ROOT


##########                                Name:    ZINC000675319328
##########                DOCK_Rotatable_Bonds:                   7
##########                         Heavy_Atoms:                  26
##########                    Molecular_Weight:             363.475
##########                DOCK_Rotatable_Bonds:                   7
##########                       Formal_Charge:          -0.0200007
##########                     HBond_Acceptors:                   6
##########                        HBond_Donors:                   1
##########                         Heavy_Atoms:                  26
##########                          Grid_Score:          -26.504292
##########                     Grid_vdw_energy:          -27.795261
##########                      Grid_es_energy:            1.290970
##########           Internal_energy_repulsive:           27.816845

@<TRIPOS>MOLECULE
ZINC000675319328
 56 58 1 0 0
SMALL
USER_CHARGES


@<TRIPOS>ATOM
      1 C1        -13.0513   -3.7106   57.7417 C.3     1  ZINC000675319328   -0.1600
      2 C2        -12.2844   -2.4238   57.4309 C.3     1  ZINC000675319328    0.1600
      3 H3        -11.2155   -2.5996   57.5519 H       1  ZINC000675319328    0.0900
      4 C4        -12.7314   -1.3191   58.3904 C.3     1  ZINC000675319328   -0.1200
      5 C5        -11.5429   -0.8742   59.2450 C.3     1  ZINC000675319328   -0.1200
      6 H6        -11.8458   -0.1083   59.9591 H       1  ZINC000675319328    0.0800
      7 C7        -10.9015   -2.0865   59.9737 C.3     1  ZINC000675319328   -0.1500
      8 C8         -9.4393   -1.5975   60.1270 C.3     1  ZINC000675319328    0.0500
      9 O9         -9.1619   -0.8615   58.9250 O.3     1  ZINC000675319328   -0.3900
     10 C10       -10.3855   -0.3700   58.3565 C.3     1  ZINC000675319328    0.0500
     11 N11       -12.5586   -2.0129   56.0516 N.am    1  ZINC000675319328   -0.7400
     12 C12       -11.5795   -2.0618   55.1266 C.2     1  ZINC000675319328    0.7000
     13 O13       -10.4688   -2.4470   55.4369 O.2     1  ZINC000675319328   -0.5900
     14 N14       -11.8317   -1.6839   53.8578 N.am    1  ZINC000675319328   -0.6200
     15 C15       -13.1899   -1.2210   53.5116 C.3     1  ZINC000675319328    0.1300
     16 C16       -13.1430    0.0065   52.5862 C.3     1  ZINC000675319328   -0.1300
     17 C17       -12.0357    0.9362   53.0313 C.3     1  ZINC000675319328    0.0700
     18 N18       -10.8129    0.6082   52.3001 N.3     1  ZINC000675319328   -0.5500
     19 C19       -10.0314    1.8181   52.0116 C.3     1  ZINC000675319328    0.1000
     20 C20        -9.3199    2.2667   53.2621 C.ar    1  ZINC000675319328   -0.0900
     21 C21        -8.0242    1.8511   53.5063 C.ar    1  ZINC000675319328   -0.0900
     22 C22        -7.3708    2.2618   54.6526 C.ar    1  ZINC000675319328   -0.1500
     23 C23        -8.0140    3.0903   55.5564 C.ar    1  ZINC000675319328    0.1000
     24 F24        -7.3759    3.4929   56.6772 F       1  ZINC000675319328   -0.1400
     25 C25        -9.3115    3.5064   55.3105 C.ar    1  ZINC000675319328   -0.1500
     26 C26        -9.9613    3.0982   54.1611 C.ar    1  ZINC000675319328   -0.0700
     27 C27        -9.9965   -0.4004   52.8630 C.3     1  ZINC000675319328    0.0500
     28 C28       -10.7578   -1.7418   52.8869 C.3     1  ZINC000675319328    0.1100
     29 H29       -12.7329   -4.4976   57.0581 H       1  ZINC000675319328    0.0600
     30 H30       -12.8474   -4.0163   58.7679 H       1  ZINC000675319328    0.0700
     31 H31       -14.1203   -3.5348   57.6206 H       1  ZINC000675319328    0.0500
     32 H32       -13.1055   -0.4702   57.8181 H       1  ZINC000675319328    0.0700
     33 H33       -13.5225   -1.6981   59.0374 H       1  ZINC000675319328    0.0900
     34 H34       -11.3649   -2.2502   60.9466 H       1  ZINC000675319328    0.0800
     35 H35       -10.9527   -2.9858   59.3600 H       1  ZINC000675319328    0.0800
     36 H36        -9.3466   -0.9486   60.9978 H       1  ZINC000675319328    0.0600
     37 H37        -8.7631   -2.4481   60.2143 H       1  ZINC000675319328    0.0900
     38 H38       -10.5044   -0.7565   57.3443 H       1  ZINC000675319328    0.0700
     39 H39       -10.3732    0.7198   58.3384 H       1  ZINC000675319328    0.0700
     40 H40       -13.4446   -1.7057   55.8041 H       1  ZINC000675319328    0.3900
     41 H41       -13.7241   -2.0270   53.0084 H       1  ZINC000675319328    0.0600
     42 H42       -13.7215   -0.9584   54.4263 H       1  ZINC000675319328    0.0900
     43 H43       -12.9552   -0.3176   51.5626 H       1  ZINC000675319328    0.0800
     44 H44       -14.0972    0.5313   52.6309 H       1  ZINC000675319328    0.0800
     45 H45       -12.3198    1.9676   52.8223 H       1  ZINC000675319328    0.0700
     46 H46       -11.8648    0.8137   54.1007 H       1  ZINC000675319328    0.0400
     47 H47        -9.2984    1.6006   51.2347 H       1  ZINC000675319328    0.0900
     48 H48       -10.6990    2.6091   51.6699 H       1  ZINC000675319328    0.0400
     49 H49        -7.5226    1.2049   52.8012 H       1  ZINC000675319328    0.1300
     50 H50        -6.3588    1.9364   54.8436 H       1  ZINC000675319328    0.1400
     51 H51        -9.8145    4.1523   56.0149 H       1  ZINC000675319328    0.1400
     52 H52       -10.9732    3.4229   53.9689 H       1  ZINC000675319328    0.1300
     53 H53        -9.0908   -0.5077   52.2660 H       1  ZINC000675319328    0.0900
     54 H54        -9.7259   -0.1206   53.8811 H       1  ZINC000675319328    0.0300
     55 H55       -10.0708   -2.5440   53.1567 H       1  ZINC000675319328    0.0700
     56 H56       -11.1755   -1.9395   51.8999 H       1  ZINC000675319328    0.0900
@<TRIPOS>BOND
     1     1     2    1
     2     1    29    1
     3     1    30    1
     4     1    31    1
     5     2     3    1
     6     2     4    1
     7     2    11    1
     8     4     5    1
     9     4    32    1
    10     4    33    1
    11     5     6    1
    12     5    10    1
    13     5     7    1
    14     7     8    1
    15     7    34    1
    16     7    35    1
    17     8     9    1
    18     8    36    1
    19     8    37    1
    20     9    10    1
    21    10    38    1
    22    10    39    1
    23    11    12   am
    24    11    40    1
    25    12    13    2
    26    12    14   am
    27    14    28    1
    28    14    15    1
    29    15    16    1
    30    15    41    1
    31    15    42    1
    32    16    17    1
    33    16    43    1
    34    16    44    1
    35    17    18    1
    36    17    45    1
    37    17    46    1
    38    18    19    1
    39    18    27    1
    40    19    20    1
    41    19    47    1
    42    19    48    1
    43    20    26   ar
    44    20    21   ar
    45    21    22   ar
    46    21    49    1
    47    22    23   ar
    48    22    50    1
    49    23    24    1
    50    23    25   ar
    51    25    26   ar
    52    25    51    1
    53    26    52    1
    54    27    28    1
    55    27    53    1
    56    27    54    1
    57    28    55    1
    58    28    56    1
@<TRIPOS>SUBSTRUCTURE
     1 ZINC000675319328        1 TEMP              0 ****  ****    0 ROOT


##########                                Name:    ZINC000742270208
##########                DOCK_Rotatable_Bonds:                   5
##########                         Heavy_Atoms:                  25
##########                    Molecular_Weight:             376.328
##########                DOCK_Rotatable_Bonds:                   5
##########                       Formal_Charge:                0.02
##########                     HBond_Acceptors:                   9
##########                        HBond_Donors:                   0
##########                         Heavy_Atoms:                  25
##########                          Grid_Score:          -26.488029
##########                     Grid_vdw_energy:          -24.756063
##########                      Grid_es_energy:           -1.731966
##########           Internal_energy_repulsive:           13.094602

@<TRIPOS>MOLECULE
ZINC000742270208
 37 38 1 0 0
SMALL
USER_CHARGES


@<TRIPOS>ATOM
      1 C1         -0.9582    3.1005   57.3769 C.3     1  ZINC000742270208   -0.1400
      2 C2         -1.6442    3.4380   56.0515 C.3     1  ZINC000742270208   -0.1400
      3 C3         -2.6386    4.5803   56.2683 C.3     1  ZINC000742270208   -0.1400
      4 C4         -0.6074    3.8593   55.0423 C.2     1  ZINC000742270208    0.4000
      5 O5          0.4264    4.3730   55.4134 O.2     1  ZINC000742270208   -0.4300
      6 C6         -0.8495    3.6471   53.6062 C.ar    1  ZINC000742270208   -0.1000
      7 C7         -2.0812    3.1517   53.1668 C.ar    1  ZINC000742270208   -0.0900
      8 C8         -2.3004    2.9556   51.8196 C.ar    1  ZINC000742270208   -0.0200
      9 C9         -1.3050    3.2474   50.9033 C.ar    1  ZINC000742270208   -0.6800
     10 S10        -1.5949    2.9934   49.1839 S.o2    1  ZINC000742270208    2.6600
     11 O11        -2.8817    2.4002   49.0773 O.2     1  ZINC000742270208   -0.9300
     12 O12        -1.2421    4.2068   48.5340 O.2     1  ZINC000742270208   -0.9000
     13 O13        -0.5982    1.9458   48.7089 O.3     1  ZINC000742270208   -0.6400
     14 C14        -0.8885    1.4189   47.4891 C.ar    1  ZINC000742270208    0.0500
     15 C15        -1.6433    0.2578   47.3954 C.ar    1  ZINC000742270208    0.0900
     16 F16        -2.0904   -0.3500   48.5161 F       1  ZINC000742270208   -0.0900
     17 C17        -1.9383   -0.2770   46.1519 C.ar    1  ZINC000742270208    0.1100
     18 F18        -2.6730   -1.4071   46.0603 F       1  ZINC000742270208   -0.1000
     19 C19        -1.4813    0.3460   45.0033 C.ar    1  ZINC000742270208   -0.1100
     20 C20        -0.7279    1.5039   45.0947 C.ar    1  ZINC000742270208    0.1200
     21 F21        -0.2830    2.1101   43.9722 F       1  ZINC000742270208   -0.1000
     22 C22        -0.4352    2.0448   46.3360 C.ar    1  ZINC000742270208    0.1200
     23 F23         0.2996    3.1750   46.4246 F       1  ZINC000742270208   -0.0900
     24 C24        -0.0834    3.7381   51.3302 C.ar    1  ZINC000742270208   -0.0300
     25 C25         0.1490    3.9455   52.6735 C.ar    1  ZINC000742270208   -0.0800
     26 H26        -1.7081    2.7958   58.1069 H       1  ZINC000742270208    0.0700
     27 H27        -0.2498    2.2867   57.2224 H       1  ZINC000742270208    0.0600
     28 H28        -0.4281    3.9787   57.7455 H       1  ZINC000742270208    0.0600
     29 H29        -2.1743    2.5598   55.6828 H       1  ZINC000742270208    0.1000
     30 H30        -2.1085    5.4585   56.6369 H       1  ZINC000742270208    0.0700
     31 H31        -3.1272    4.8208   55.3241 H       1  ZINC000742270208    0.0600
     32 H32        -3.3886    4.2756   56.9983 H       1  ZINC000742270208    0.0700
     33 H33        -2.8586    2.9229   53.8807 H       1  ZINC000742270208    0.1500
     34 H34        -3.2510    2.5731   51.4786 H       1  ZINC000742270208    0.1500
     35 H35        -1.7124   -0.0719   44.0346 H       1  ZINC000742270208    0.1900
     36 H36         0.6884    3.9634   50.6091 H       1  ZINC000742270208    0.1500
     37 H37         1.1028    4.3284   53.0052 H       1  ZINC000742270208    0.1500
@<TRIPOS>BOND
     1     1     2    1
     2     1    26    1
     3     1    27    1
     4     1    28    1
     5     2     3    1
     6     2     4    1
     7     2    29    1
     8     3    30    1
     9     3    31    1
    10     3    32    1
    11     4     5    2
    12     4     6    1
    13     6    25   ar
    14     6     7   ar
    15     7     8   ar
    16     7    33    1
    17     8     9   ar
    18     8    34    1
    19     9    10    1
    20     9    24   ar
    21    10    11    2
    22    10    12    2
    23    10    13    1
    24    13    14    1
    25    14    22   ar
    26    14    15   ar
    27    15    16    1
    28    15    17   ar
    29    17    18    1
    30    17    19   ar
    31    19    20   ar
    32    19    35    1
    33    20    21    1
    34    20    22   ar
    35    22    23    1
    36    24    25   ar
    37    24    36    1
    38    25    37    1
@<TRIPOS>SUBSTRUCTURE
     1 ZINC000742270208        1 TEMP              0 ****  ****    0 ROOT


##########                                Name:    ZINC001345966764
##########                DOCK_Rotatable_Bonds:                  10
##########                         Heavy_Atoms:                  22
##########                    Molecular_Weight:             333.258
##########                DOCK_Rotatable_Bonds:                  10
##########                       Formal_Charge:           0.0099997
##########                     HBond_Acceptors:                  11
##########                        HBond_Donors:                   4
##########                         Heavy_Atoms:                  22
##########                          Grid_Score:          -26.482924
##########                     Grid_vdw_energy:          -23.489155
##########                      Grid_es_energy:           -2.993769
##########           Internal_energy_repulsive:            6.306992

@<TRIPOS>MOLECULE
ZINC001345966764
 38 38 1 0 0
SMALL
USER_CHARGES


@<TRIPOS>ATOM
      1 N1         -6.6221    2.6341   52.7907 N.3     1  ZINC001345966764   -0.8400
      2 C2         -6.3808    4.0390   52.4355 C.3     1  ZINC001345966764    0.0200
      3 C3         -5.7501    4.7648   53.6256 C.3     1  ZINC001345966764    0.2800
      4 F4         -5.3682    6.0534   53.2369 F       1  ZINC001345966764   -0.1900
      5 F5         -6.6804    4.8484   54.6672 F       1  ZINC001345966764   -0.1800
      6 C6         -4.5197    3.9900   54.1016 C.3     1  ZINC001345966764    0.0800
      7 N7         -3.6226    3.7537   52.9678 N.am    1  ZINC001345966764   -0.7000
      8 C8         -2.2878    3.8348   53.1363 C.2     1  ZINC001345966764    0.5100
      9 O9         -1.8292    4.1050   54.2267 O.2     1  ZINC001345966764   -0.5100
     10 C10        -1.3725    3.5919   51.9800 C.2     1  ZINC001345966764    0.5100
     11 O11        -0.1865    3.8259   52.0855 O.2     1  ZINC001345966764   -0.5100
     12 N12        -1.8645    3.1133   50.8202 N.am    1  ZINC001345966764   -0.7000
     13 C13        -0.9670    2.8735   49.6873 C.3     1  ZINC001345966764    0.1200
     14 C14        -1.7365    2.1716   48.5666 C.3     1  ZINC001345966764    0.0600
     15 H15        -2.7250    2.6160   48.4499 H       1  ZINC001345966764    0.0900
     16 C16        -0.9496    2.2547   47.2400 C.3     1  ZINC001345966764   -0.1400
     17 C17        -1.2060    0.8885   46.5652 C.3     1  ZINC001345966764   -0.1500
     18 C18        -2.1175    0.1418   47.5640 C.3     1  ZINC001345966764    0.0300
     19 H19        -3.1651    0.2731   47.2930 H       1  ZINC001345966764    0.1200
     20 C20        -1.7606   -1.3455   47.6015 C.3     1  ZINC001345966764    0.4600
     21 F21        -1.8545   -1.8803   46.3121 F       1  ZINC001345966764   -0.1700
     22 F22        -0.4537   -1.4996   48.0762 F       1  ZINC001345966764   -0.1700
     23 F23        -2.6472   -2.0167   48.4504 F       1  ZINC001345966764   -0.1700
     24 O24        -1.8501    0.7586   48.8433 O.3     1  ZINC001345966764   -0.3500
     25 H25        -5.7593    2.1676   53.0272 H       1  ZINC001345966764    0.3500
     26 H26        -7.2907    2.5610   53.5427 H       1  ZINC001345966764    0.3600
     27 H27        -5.7055    4.0870   51.5812 H       1  ZINC001345966764    0.1100
     28 H28        -7.3264    4.5163   52.1784 H       1  ZINC001345966764    0.0700
     29 H29        -3.9978    4.5693   54.8632 H       1  ZINC001345966764    0.1100
     30 H30        -4.8325    3.0345   54.5227 H       1  ZINC001345966764    0.1100
     31 H31        -3.9891    3.5389   52.0958 H       1  ZINC001345966764    0.4200
     32 H32        -2.8127    2.9274   50.7354 H       1  ZINC001345966764    0.4200
     33 H33        -0.5808    3.8252   49.3221 H       1  ZINC001345966764    0.1000
     34 H34        -0.1372    2.2437   50.0080 H       1  ZINC001345966764    0.0900
     35 H35        -1.3318    3.0650   46.6192 H       1  ZINC001345966764    0.0900
     36 H36         0.1143    2.3907   47.4348 H       1  ZINC001345966764    0.0900
     37 H37        -1.7149    1.0235   45.6108 H       1  ZINC001345966764    0.1000
     38 H38        -0.2689    0.3493   46.4264 H       1  ZINC001345966764    0.0900
@<TRIPOS>BOND
     1     1     2    1
     2     1    25    1
     3     1    26    1
     4     2     3    1
     5     2    27    1
     6     2    28    1
     7     3     4    1
     8     3     5    1
     9     3     6    1
    10     6     7    1
    11     6    29    1
    12     6    30    1
    13     7     8   am
    14     7    31    1
    15     8     9    2
    16     8    10    1
    17    10    11    2
    18    10    12   am
    19    12    13    1
    20    12    32    1
    21    13    14    1
    22    13    33    1
    23    13    34    1
    24    14    15    1
    25    14    24    1
    26    14    16    1
    27    16    17    1
    28    16    35    1
    29    16    36    1
    30    17    18    1
    31    17    37    1
    32    17    38    1
    33    18    19    1
    34    18    20    1
    35    18    24    1
    36    20    21    1
    37    20    22    1
    38    20    23    1
@<TRIPOS>SUBSTRUCTURE
     1 ZINC001345966764        1 TEMP              0 ****  ****    0 ROOT


##########                                Name:    ZINC000931749147
##########                DOCK_Rotatable_Bonds:                   5
##########                         Heavy_Atoms:                  25
##########                    Molecular_Weight:             354.397
##########                DOCK_Rotatable_Bonds:                   5
##########                       Formal_Charge:        -4.76837e-07
##########                     HBond_Acceptors:                   7
##########                        HBond_Donors:                   1
##########                         Heavy_Atoms:                  25
##########                          Grid_Score:          -26.477068
##########                     Grid_vdw_energy:          -26.138645
##########                      Grid_es_energy:           -0.338422
##########           Internal_energy_repulsive:          157.773346

@<TRIPOS>MOLECULE
ZINC000931749147
 49 51 1 0 0
SMALL
USER_CHARGES


@<TRIPOS>ATOM
      1 C1        -11.3192   -3.0447   54.2072 C.3     1  ZINC000931749147   -0.1100
      2 C2        -11.5739   -1.5614   54.2838 C.ar    1  ZINC000931749147   -0.1300
      3 C3        -12.2186   -1.0234   55.3891 C.ar    1  ZINC000931749147    0.1800
      4 N4        -12.6326   -1.8585   56.4344 N.am    1  ZINC000931749147   -0.6800
      5 C5        -12.3579   -1.5265   57.7114 C.2     1  ZINC000931749147    0.7100
      6 O6        -11.7507   -0.5018   57.9560 O.2     1  ZINC000931749147   -0.5500
      7 N7        -12.7564   -2.3301   58.7173 N.am    1  ZINC000931749147   -0.6200
      8 C8        -13.4925   -3.5750   58.4460 C.3     1  ZINC000931749147    0.0700
      9 C9        -14.7463   -3.5973   59.3278 C.3     1  ZINC000931749147    0.0500
     10 O10       -14.3698   -3.3657   60.6873 O.3     1  ZINC000931749147   -0.3700
     11 C11       -13.7712   -2.0883   60.9195 C.3     1  ZINC000931749147    0.0500
     12 C12       -12.4627   -1.9917   60.1190 C.3     1  ZINC000931749147    0.1300
     13 H13       -11.7312   -2.6901   60.5254 H       1  ZINC000931749147    0.0900
     14 C14       -11.9136   -0.5659   60.1992 C.3     1  ZINC000931749147   -0.1100
     15 C15       -10.4206   -0.5748   59.8643 C.3     1  ZINC000931749147   -0.1000
     16 C16        -9.9731    0.8392   59.4809 C.3     1  ZINC000931749147   -0.1500
     17 C17        -8.4639    0.8362   59.2242 C.3     1  ZINC000931749147    0.0600
     18 O18        -7.7844    0.3674   60.3908 O.3     1  ZINC000931749147   -0.3800
     19 C19        -8.1280   -0.9670   60.7694 C.3     1  ZINC000931749147    0.0600
     20 C20        -9.6237   -1.0365   61.0882 C.3     1  ZINC000931749147   -0.1500
     21 C21       -12.4522    0.3437   55.4575 C.ar    1  ZINC000931749147   -0.1200
     22 C22       -12.0431    1.1667   54.4264 C.ar    1  ZINC000931749147   -0.1100
     23 C23       -11.4001    0.6303   53.3242 C.ar    1  ZINC000931749147    0.0500
     24 F24       -11.0008    1.4372   52.3168 F       1  ZINC000931749147   -0.1300
     25 C25       -11.1602   -0.7338   53.2555 C.ar    1  ZINC000931749147    0.0900
     26 F26       -10.5326   -1.2560   52.1791 F       1  ZINC000931749147   -0.1200
     27 H27       -10.3530   -3.2713   54.6580 H       1  ZINC000931749147    0.0800
     28 H28       -12.1045   -3.5765   54.7444 H       1  ZINC000931749147    0.0700
     29 H29       -11.3159   -3.3594   53.1636 H       1  ZINC000931749147    0.0800
     30 H30       -13.1171   -2.6760   56.2393 H       1  ZINC000931749147    0.4100
     31 H31       -13.7818   -3.6090   57.3957 H       1  ZINC000931749147    0.0800
     32 H32       -12.8627   -4.4328   58.6818 H       1  ZINC000931749147    0.0900
     33 H33       -15.4340   -2.8167   59.0025 H       1  ZINC000931749147    0.0600
     34 H34       -15.2324   -4.5693   59.2451 H       1  ZINC000931749147    0.1100
     35 H35       -14.4555   -1.3023   60.6000 H       1  ZINC000931749147    0.0600
     36 H36       -13.5558   -1.9749   61.9820 H       1  ZINC000931749147    0.1100
     37 H37       -12.4420    0.0676   59.4869 H       1  ZINC000931749147    0.1100
     38 H38       -12.0574   -0.1773   61.2074 H       1  ZINC000931749147    0.0700
     39 H39       -10.2377   -1.2548   59.0322 H       1  ZINC000931749147    0.0700
     40 H40       -10.4955    1.1542   58.5778 H       1  ZINC000931749147    0.0700
     41 H41       -10.2029    1.5271   60.2946 H       1  ZINC000931749147    0.0700
     42 H42        -8.2392    0.1790   58.3841 H       1  ZINC000931749147    0.0500
     43 H43        -8.1325    1.8485   58.9927 H       1  ZINC000931749147    0.0900
     44 H44        -7.8990   -1.6477   59.9495 H       1  ZINC000931749147    0.0500
     45 H45        -7.5546   -1.2537   61.6511 H       1  ZINC000931749147    0.0900
     46 H46        -9.8464   -0.3864   61.9343 H       1  ZINC000931749147    0.0700
     47 H47        -9.8963   -2.0627   61.3345 H       1  ZINC000931749147    0.0700
     48 H48       -12.9540    0.7634   56.3168 H       1  ZINC000931749147    0.1800
     49 H49       -12.2253    2.2299   54.4800 H       1  ZINC000931749147    0.1500
@<TRIPOS>BOND
     1     1     2    1
     2     1    27    1
     3     1    28    1
     4     1    29    1
     5     2    25   ar
     6     2     3   ar
     7     3     4    1
     8     3    21   ar
     9     4     5   am
    10     4    30    1
    11     5     6    2
    12     5     7   am
    13     7    12    1
    14     7     8    1
    15     8     9    1
    16     8    31    1
    17     8    32    1
    18     9    10    1
    19     9    33    1
    20     9    34    1
    21    10    11    1
    22    11    12    1
    23    11    35    1
    24    11    36    1
    25    12    13    1
    26    12    14    1
    27    14    15    1
    28    14    37    1
    29    14    38    1
    30    15    20    1
    31    15    16    1
    32    15    39    1
    33    16    17    1
    34    16    40    1
    35    16    41    1
    36    17    18    1
    37    17    42    1
    38    17    43    1
    39    18    19    1
    40    19    20    1
    41    19    44    1
    42    19    45    1
    43    20    46    1
    44    20    47    1
    45    21    22   ar
    46    21    48    1
    47    22    23   ar
    48    22    49    1
    49    23    24    1
    50    23    25   ar
    51    25    26    1
@<TRIPOS>SUBSTRUCTURE
     1 ZINC000931749147        1 TEMP              0 ****  ****    0 ROOT


##########                                Name:    ZINC001060733018
##########                DOCK_Rotatable_Bonds:                   7
##########                         Heavy_Atoms:                  24
##########                    Molecular_Weight:             342.429
##########                DOCK_Rotatable_Bonds:                   7
##########                       Formal_Charge:           0.0200001
##########                     HBond_Acceptors:                   6
##########                        HBond_Donors:                   2
##########                         Heavy_Atoms:                  24
##########                          Grid_Score:          -26.475851
##########                     Grid_vdw_energy:          -26.584047
##########                      Grid_es_energy:            0.108196
##########           Internal_energy_repulsive:            7.846959

@<TRIPOS>MOLECULE
ZINC001060733018
 52 54 1 0 0
SMALL
USER_CHARGES


@<TRIPOS>ATOM
      1 O1          0.2999    2.7411   43.0731 O.2     1  ZINC001060733018   -0.5000
      2 C2          1.0886    1.8491   43.3035 C.2     1  ZINC001060733018    0.4700
      3 N3          0.6899    0.7560   43.9838 N.am    1  ZINC001060733018   -0.7100
      4 C4         -0.6951    0.6473   44.4486 C.3     1  ZINC001060733018    0.1200
      5 C5         -0.7306    0.7520   45.9746 C.3     1  ZINC001060733018   -0.1000
      6 H6          0.0003    0.0661   46.4029 H       1  ZINC001060733018    0.0800
      7 C7         -0.3943    2.1840   46.3955 C.3     1  ZINC001060733018   -0.1100
      8 C8         -0.4297    2.2886   47.9216 C.3     1  ZINC001060733018   -0.1300
      9 C9         -1.8277    1.9240   48.4254 C.3     1  ZINC001060733018    0.1400
     10 H10        -2.5586    2.6098   47.9970 H       1  ZINC001060733018    0.0900
     11 N11        -1.8617    2.0242   49.8865 N.am    1  ZINC001060733018   -0.7300
     12 C12        -1.9706    3.2309   50.4769 C.2     1  ZINC001060733018    0.5200
     13 O13        -2.0417    4.2337   49.7985 O.2     1  ZINC001060733018   -0.5400
     14 C14        -2.0037    3.3341   51.9800 C.3     1  ZINC001060733018   -0.1000
     15 H15        -1.8988    2.3401   52.4148 H       1  ZINC001060733018    0.1000
     16 C16        -3.3349    3.9453   52.4199 C.3     1  ZINC001060733018   -0.1100
     17 C17        -3.4076    3.9856   53.9470 C.3     1  ZINC001060733018   -0.1200
     18 C18        -2.3006    4.8965   54.4866 C.3     1  ZINC001060733018   -0.0800
     19 C19        -0.9487    4.3897   53.9757 C.3     1  ZINC001060733018   -0.1300
     20 C20        -0.1886    3.3916   54.8487 C.3     1  ZINC001060733018   -0.1700
     21 C21         0.3070    4.8341   54.7246 C.3     1  ZINC001060733018   -0.1700
     22 C22        -0.8516    4.2241   52.4562 C.3     1  ZINC001060733018   -0.0600
     23 C23        -2.1642    0.4920   48.0044 C.3     1  ZINC001060733018   -0.1200
     24 C24        -2.1286    0.3874   46.4784 C.3     1  ZINC001060733018   -0.1100
     25 C25         2.5129    1.9600   42.8238 C.3     1  ZINC001060733018    0.2600
     26 F26         3.2902    2.5775   43.8096 F       1  ZINC001060733018   -0.1700
     27 F27         3.0185    0.6816   42.5641 F       1  ZINC001060733018   -0.1900
     28 H28         1.3201    0.0413   44.1657 H       1  ZINC001060733018    0.4100
     29 H29        -1.2881    1.4527   44.0152 H       1  ZINC001060733018    0.0800
     30 H30        -1.1074   -0.3136   44.1406 H       1  ZINC001060733018    0.0800
     31 H31         0.6016    2.4437   46.0367 H       1  ZINC001060733018    0.0700
     32 H32        -1.1251    2.8698   45.9672 H       1  ZINC001060733018    0.0700
     33 H33        -0.1901    3.3087   48.2215 H       1  ZINC001060733018    0.0700
     34 H34         0.3011    1.6027   48.3499 H       1  ZINC001060733018    0.0600
     35 H35        -1.8060    1.2221   50.4291 H       1  ZINC001060733018    0.4000
     36 H36        -3.4159    4.9587   52.0265 H       1  ZINC001060733018    0.0700
     37 H37        -4.1560    3.3406   52.0350 H       1  ZINC001060733018    0.0700
     38 H38        -4.3790    4.3729   54.2545 H       1  ZINC001060733018    0.0700
     39 H39        -3.2756    2.9790   54.3438 H       1  ZINC001060733018    0.0700
     40 H40        -2.4640    5.9160   54.1373 H       1  ZINC001060733018    0.0700
     41 H41        -2.3099    4.8763   55.5763 H       1  ZINC001060733018    0.0700
     42 H42        -0.6476    3.0964   55.7923 H       1  ZINC001060733018    0.0900
     43 H43         0.3869    2.6164   54.3427 H       1  ZINC001060733018    0.0900
     44 H44         1.2085    5.0079   54.1370 H       1  ZINC001060733018    0.0900
     45 H45         0.1740    5.4882   55.5863 H       1  ZINC001060733018    0.0900
     46 H46         0.0998    3.7581   52.1998 H       1  ZINC001060733018    0.0700
     47 H47        -0.9226    5.2007   51.9773 H       1  ZINC001060733018    0.0800
     48 H48        -3.1600    0.2323   48.3634 H       1  ZINC001060733018    0.0700
     49 H49        -1.4332   -0.1938   48.4328 H       1  ZINC001060733018    0.0700
     50 H50        -2.8595    1.0731   46.0501 H       1  ZINC001060733018    0.0700
     51 H51        -2.3683   -0.6328   46.1785 H       1  ZINC001060733018    0.0700
     52 H52         2.5436    2.5551   41.9111 H       1  ZINC001060733018    0.1400
@<TRIPOS>BOND
     1     1     2    2
     2     2     3   am
     3     2    25    1
     4     3     4    1
     5     3    28    1
     6     4     5    1
     7     4    29    1
     8     4    30    1
     9     5     6    1
    10     5    24    1
    11     5     7    1
    12     7     8    1
    13     7    31    1
    14     7    32    1
    15     8     9    1
    16     8    33    1
    17     8    34    1
    18     9    10    1
    19     9    11    1
    20     9    23    1
    21    11    12   am
    22    11    35    1
    23    12    13    2
    24    12    14    1
    25    14    15    1
    26    14    22    1
    27    14    16    1
    28    16    17    1
    29    16    36    1
    30    16    37    1
    31    17    18    1
    32    17    38    1
    33    17    39    1
    34    18    19    1
    35    18    40    1
    36    18    41    1
    37    19    21    1
    38    19    20    1
    39    19    22    1
    40    20    21    1
    41    20    42    1
    42    20    43    1
    43    21    44    1
    44    21    45    1
    45    22    46    1
    46    22    47    1
    47    23    24    1
    48    23    48    1
    49    23    49    1
    50    24    50    1
    51    24    51    1
    52    25    26    1
    53    25    27    1
    54    25    52    1
@<TRIPOS>SUBSTRUCTURE
     1 ZINC001060733018        1 TEMP              0 ****  ****    0 ROOT


##########                                Name:    ZINC000478980774
##########                DOCK_Rotatable_Bonds:                   4
##########                         Heavy_Atoms:                  26
##########                    Molecular_Weight:             401.818
##########                DOCK_Rotatable_Bonds:                   4
##########                       Formal_Charge:          -0.0100001
##########                     HBond_Acceptors:                   9
##########                        HBond_Donors:                   1
##########                         Heavy_Atoms:                  26
##########                          Grid_Score:          -26.474937
##########                     Grid_vdw_energy:          -24.589582
##########                      Grid_es_energy:           -1.885354
##########           Internal_energy_repulsive:            8.659347

@<TRIPOS>MOLECULE
ZINC000478980774
 40 42 1 0 0
SMALL
USER_CHARGES


@<TRIPOS>ATOM
      1 C1         -2.3961    5.9442   52.8013 C.3     1  ZINC000478980774   -0.1400
      2 C2         -3.3778    4.8701   52.3286 C.3     1  ZINC000478980774   -0.4600
      3 H3         -4.1996    5.3410   51.7892 H       1  ZINC000478980774    0.1500
      4 C4         -2.6656    3.9051   51.4162 C.2     1  ZINC000478980774    0.5400
      5 O5         -1.4934    3.6517   51.5974 O.2     1  ZINC000478980774   -0.5000
      6 N6         -3.3312    3.3238   50.3986 N.am    1  ZINC000478980774   -0.6600
      7 C7         -2.6692    2.4267   49.5503 C.ar    1  ZINC000478980774    0.1600
      8 C8         -1.5641    2.8461   48.8227 C.ar    1  ZINC000478980774   -0.1200
      9 C9         -0.9103    1.9623   47.9849 C.ar    1  ZINC000478980774   -0.0600
     10 C10        -1.3555    0.6559   47.8689 C.ar    1  ZINC000478980774    0.0100
     11 O11        -0.8960   -0.3934   47.1249 O.3     1  ZINC000478980774   -0.2900
     12 C12        -1.4820   -1.5687   47.7152 C.3     1  ZINC000478980774    0.5700
     13 F13        -1.7637   -2.5239   46.7325 F       1  ZINC000478980774   -0.1100
     14 F14        -0.6336   -2.1041   48.6902 F       1  ZINC000478980774   -0.1500
     15 O15        -2.6989   -1.0820   48.3111 O.3     1  ZINC000478980774   -0.2800
     16 C16        -2.4644    0.2318   48.5983 C.ar    1  ZINC000478980774    0.0500
     17 C17        -3.1151    1.1162   49.4415 C.ar    1  ZINC000478980774   -0.0900
     18 S18        -4.0314    3.9743   53.7643 S.o     1  ZINC000478980774    1.3000
     19 O19        -2.9639    3.3339   54.4492 O.2     1  ZINC000478980774   -0.7800
     20 C20        -4.7051    5.3017   54.8012 C.3     1  ZINC000478980774   -0.4300
     21 C21        -5.2953    4.7091   56.0549 C.ar    1  ZINC000478980774   -0.0600
     22 C22        -5.8059    3.4251   56.0384 C.ar    1  ZINC000478980774   -0.1100
     23 C23        -6.3475    2.8813   57.1885 C.ar    1  ZINC000478980774   -0.1100
     24 C24        -6.3789    3.6218   58.3553 C.ar    1  ZINC000478980774   -0.1100
     25 C25        -5.8684    4.9063   58.3730 C.ar    1  ZINC000478980774   -0.1100
     26 C26        -5.3209    5.4486   57.2242 C.ar    1  ZINC000478980774   -0.0300
     27 Cl27       -4.6795    7.0617   57.2457 Cl      1  ZINC000478980774   -0.0600
     28 H28        -2.9112    6.6421   53.4613 H       1  ZINC000478980774    0.0800
     29 H29        -1.5743    5.4732   53.3407 H       1  ZINC000478980774    0.0700
     30 H30        -2.0032    6.4823   51.9387 H       1  ZINC000478980774    0.0700
     31 H31        -4.2686    3.5266   50.2535 H       1  ZINC000478980774    0.4200
     32 H32        -1.2150    3.8644   48.9110 H       1  ZINC000478980774    0.1500
     33 H33        -0.0508    2.2911   47.4196 H       1  ZINC000478980774    0.1500
     34 H34        -3.9718    0.7881   50.0114 H       1  ZINC000478980774    0.1600
     35 H35        -3.9074    5.9950   55.0677 H       1  ZINC000478980774    0.1100
     36 H36        -5.4808    5.8343   54.2511 H       1  ZINC000478980774    0.1300
     37 H37        -5.7823    2.8464   55.1269 H       1  ZINC000478980774    0.1400
     38 H38        -6.7465    1.8778   57.1751 H       1  ZINC000478980774    0.1300
     39 H39        -6.8027    3.1968   59.2531 H       1  ZINC000478980774    0.1300
     40 H40        -5.8929    5.4847   59.2847 H       1  ZINC000478980774    0.1300
@<TRIPOS>BOND
     1     1     2    1
     2     1    28    1
     3     1    29    1
     4     1    30    1
     5     2     3    1
     6     2     4    1
     7     2    18    1
     8     4     5    2
     9     4     6   am
    10     6     7    1
    11     6    31    1
    12     7    17   ar
    13     7     8   ar
    14     8     9   ar
    15     8    32    1
    16     9    10   ar
    17     9    33    1
    18    10    16   ar
    19    10    11    1
    20    11    12    1
    21    12    13    1
    22    12    14    1
    23    12    15    1
    24    15    16    1
    25    16    17   ar
    26    17    34    1
    27    18    19    2
    28    18    20    1
    29    20    21    1
    30    20    35    1
    31    20    36    1
    32    21    26   ar
    33    21    22   ar
    34    22    23   ar
    35    22    37    1
    36    23    24   ar
    37    23    38    1
    38    24    25   ar
    39    24    39    1
    40    25    26   ar
    41    25    40    1
    42    26    27    1
@<TRIPOS>SUBSTRUCTURE
     1 ZINC000478980774        1 TEMP              0 ****  ****    0 ROOT


##########                                Name:    ZINC000012087388
##########                DOCK_Rotatable_Bonds:                   5
##########                         Heavy_Atoms:                  29
##########                    Molecular_Weight:              418.52
##########                DOCK_Rotatable_Bonds:                   5
##########                       Formal_Charge:          -0.0499999
##########                     HBond_Acceptors:                  10
##########                        HBond_Donors:                   1
##########                         Heavy_Atoms:                  29
##########                          Grid_Score:          -26.467394
##########                     Grid_vdw_energy:          -25.691063
##########                      Grid_es_energy:           -0.776332
##########           Internal_energy_repulsive:           31.626879

@<TRIPOS>MOLECULE
ZINC000012087388
 55 58 1 0 0
SMALL
USER_CHARGES


@<TRIPOS>ATOM
      1 C1        -15.6887   -2.2327   58.0681 C.3     1  <0>        -0.6600
      2 S2        -14.3188   -3.2525   58.6797 S.o2    1  <0>         2.5100
      3 O3        -14.7407   -4.0459   59.7804 O.2     1  <0>        -0.9400
      4 O4        -13.6015   -3.8261   57.5955 O.2     1  <0>        -0.9300
      5 C5        -13.1907   -2.0968   59.3842 C.ar    1  <0>        -0.8400
      6 C6        -12.8962   -2.1300   60.7379 C.ar    1  <0>         0.3000
      7 N7        -12.0446   -1.2482   61.2350 N.ar    1  <0>        -0.5800
      8 C8        -11.4761   -0.3414   60.4543 C.ar    1  <0>         0.6000
      9 N9        -10.5896    0.5662   61.0076 N.pl3   1  <0>        -0.5700
     10 C10       -10.8990    2.0025   61.0201 C.3     1  <0>         0.1200
     11 C11       -10.7775    2.5205   62.4566 C.3     1  <0>        -0.1400
     12 C12        -9.3923    2.1712   63.0053 C.3     1  <0>        -0.1200
     13 C13        -9.2175    0.6509   63.0236 C.3     1  <0>        -0.1400
     14 C14        -9.3240    0.1110   61.5989 C.3     1  <0>         0.1200
     15 N15       -11.7357   -0.2827   59.1562 N.ar    1  <0>        -0.5700
     16 C16       -12.5741   -1.1381   58.5952 C.ar    1  <0>         0.3200
     17 C17       -12.8637   -1.0646   57.1182 C.3     1  <0>        -0.0700
     18 C18       -13.4880    0.2931   56.7880 C.3     1  <0>        -0.1300
     19 C19       -13.8128    0.3510   55.2920 C.3     1  <0>         0.0900
     20 N20       -12.5934    0.0465   54.5311 N.am    1  <0>        -0.6100
     21 C21       -12.1527    0.8877   53.5748 C.2     1  <0>         0.5900
     22 O22       -12.7659    1.9103   53.3346 O.2     1  <0>        -0.5100
     23 C23       -10.9295    0.5690   52.8212 C.2     1  <0>        -0.0400
     24 C24        -9.6888    1.1665   52.9600 C.2     1  <0>        -0.1500
     25 C25        -8.8636    0.5252   52.0334 C.2     1  <0>         0.0000
     26 N26        -9.5822   -0.3737   51.4106 N.2     1  <0>        -0.2700
     27 N27       -10.7896   -0.3799   51.8485 N.pl3   1  <0>        -0.3900
     28 C28       -11.8633   -1.1923   54.8329 C.3     1  <0>         0.1100
     29 C29       -11.5603   -1.2329   56.3339 C.3     1  <0>        -0.1200
     30 H30       -16.1331   -1.6850   58.8992 H       1  <0>         0.1400
     31 H31       -15.3135   -1.5269   57.3271 H       1  <0>         0.1300
     32 H32       -16.4426   -2.8734   57.6106 H       1  <0>         0.1400
     33 H33       -13.3568   -2.8668   61.3795 H       1  <0>         0.1900
     34 H34       -10.1949    2.5335   60.3794 H       1  <0>         0.0700
     35 H35       -11.9153    2.1604   60.6593 H       1  <0>         0.1000
     36 H36       -10.9102    3.6024   62.4657 H       1  <0>         0.0800
     37 H37       -11.5429    2.0544   63.0773 H       1  <0>         0.0700
     38 H38        -8.6270    2.6171   62.3699 H       1  <0>         0.0700
     39 H39        -9.2943    2.5603   64.0188 H       1  <0>         0.0700
     40 H40        -8.2398    0.4020   63.4362 H       1  <0>         0.0800
     41 H41        -9.9975    0.2025   63.6390 H       1  <0>         0.0700
     42 H42        -9.2991   -0.9785   61.6184 H       1  <0>         0.1000
     43 H43        -8.4926    0.4871   61.0027 H       1  <0>         0.0700
     44 H44       -13.5576   -1.8593   56.8441 H       1  <0>         0.1000
     45 H45       -14.4041    0.4222   57.3644 H       1  <0>         0.0800
     46 H46       -12.7849    1.0874   57.0385 H       1  <0>         0.0900
     47 H47       -14.5833   -0.3832   55.0567 H       1  <0>         0.0800
     48 H48       -14.1654    1.3494   55.0330 H       1  <0>         0.0900
     49 H49        -9.4166    1.9599   53.6403 H       1  <0>         0.1700
     50 H50        -7.8181    0.7345   51.8612 H       1  <0>         0.1900
     51 H51       -11.4962   -0.9642   51.5320 H       1  <0>         0.4400
     52 H52       -12.4748   -2.0525   54.5601 H       1  <0>         0.0800
     53 H53       -10.9296   -1.2123   54.2709 H       1  <0>         0.1000
     54 H54       -10.8754   -0.4243   56.5888 H       1  <0>         0.0800
     55 H55       -11.1044   -2.1900   56.5873 H       1  <0>         0.0900
@<TRIPOS>BOND
     1     1     2    1
     2     1    30    1
     3     1    31    1
     4     1    32    1
     5     2     3    2
     6     2     4    2
     7     2     5    1
     8     5    16   ar
     9     5     6   ar
    10     6     7   ar
    11     6    33    1
    12     7     8   ar
    13     8     9    1
    14     8    15   ar
    15     9    14    1
    16     9    10    1
    17    10    11    1
    18    10    34    1
    19    10    35    1
    20    11    12    1
    21    11    36    1
    22    11    37    1
    23    12    13    1
    24    12    38    1
    25    12    39    1
    26    13    14    1
    27    13    40    1
    28    13    41    1
    29    14    42    1
    30    14    43    1
    31    15    16   ar
    32    16    17    1
    33    17    29    1
    34    17    18    1
    35    17    44    1
    36    18    19    1
    37    18    45    1
    38    18    46    1
    39    19    20    1
    40    19    47    1
    41    19    48    1
    42    20    21   am
    43    20    28    1
    44    21    22    2
    45    21    23    1
    46    23    27    1
    47    23    24    2
    48    24    25    1
    49    24    49    1
    50    25    26    2
    51    25    50    1
    52    26    27    1
    53    27    51    1
    54    28    29    1
    55    28    52    1
    56    28    53    1
    57    29    54    1
    58    29    55    1
@<TRIPOS>SUBSTRUCTURE
     1 <0>         1 TEMP              0 ****  ****    0 ROOT


##########                                Name:    ZINC000302023461
##########                DOCK_Rotatable_Bonds:                   3
##########                         Heavy_Atoms:                  25
##########                    Molecular_Weight:             356.362
##########                DOCK_Rotatable_Bonds:                   3
##########                       Formal_Charge:        -2.08616e-07
##########                     HBond_Acceptors:                   9
##########                        HBond_Donors:                   1
##########                         Heavy_Atoms:                  25
##########                          Grid_Score:          -26.363203
##########                     Grid_vdw_energy:          -26.267994
##########                      Grid_es_energy:           -0.095210
##########           Internal_energy_repulsive:           22.477039

@<TRIPOS>MOLECULE
ZINC000302023461
 37 40 1 0 0
SMALL
USER_CHARGES


@<TRIPOS>ATOM
      1 O1          2.3888    0.2863   47.3446 O.2     1  ZINC000302023461   -0.1600
      2 N2          1.2827    0.7465   47.1244 N.pl3   1  ZINC000302023461    0.0200
      3 O3          1.1707    1.8126   46.5462 O.2     1  ZINC000302023461   -0.1300
      4 C4          0.0745    0.0068   47.5541 C.ar    1  ZINC000302023461    0.0000
      5 C5          0.2004   -1.2017   48.2094 C.ar    1  ZINC000302023461   -0.0600
      6 C6         -0.9280   -1.8934   48.6112 C.ar    1  ZINC000302023461   -0.0900
      7 C7         -2.1859   -1.3774   48.3586 C.ar    1  ZINC000302023461   -0.0800
      8 C8         -2.3195   -0.1690   47.7036 C.ar    1  ZINC000302023461   -0.0500
      9 C9         -1.1881    0.5312   47.3031 C.ar    1  ZINC000302023461   -0.1100
     10 S10        -1.3537    2.0735   46.4676 S.3     1  ZINC000302023461    0.1900
     11 C11        -0.9778    3.2483   47.7257 C.2     1  ZINC000302023461    0.2100
     12 N12        -0.4701    4.4428   47.5262 N.2     1  ZINC000302023461   -0.3200
     13 N13        -0.3300    5.0442   48.7874 N.pl3   1  ZINC000302023461   -0.4700
     14 C14        -0.7769    4.1434   49.6914 C.2     1  ZINC000302023461    0.3500
     15 C15        -0.8247    4.3323   51.1573 C.ar    1  ZINC000302023461   -0.0400
     16 C16        -0.1733    5.4174   51.7445 C.ar    1  ZINC000302023461   -0.0900
     17 C17        -0.2179    5.5901   53.1118 C.ar    1  ZINC000302023461   -0.1100
     18 C18        -0.9092    4.6875   53.9090 C.ar    1  ZINC000302023461    0.0800
     19 O19        -0.9327    4.8729   55.2568 O.3     1  ZINC000302023461   -0.3000
     20 C20        -1.9400    4.1645   55.9870 C.3     1  ZINC000302023461    0.0200
     21 C21        -1.9563    2.7104   55.4968 C.3     1  ZINC000302023461    0.0200
     22 O22        -2.2499    2.7133   54.0956 O.3     1  ZINC000302023461   -0.3000
     23 C23        -1.5638    3.6047   53.3288 C.ar    1  ZINC000302023461    0.0500
     24 C24        -1.5261    3.4288   51.9567 C.ar    1  ZINC000302023461   -0.0500
     25 N25        -1.1687    3.0695   49.0346 N.2     1  ZINC000302023461   -0.5000
     26 H26         1.1813   -1.6077   48.4083 H       1  ZINC000302023461    0.1600
     27 H27        -0.8266   -2.8390   49.1231 H       1  ZINC000302023461    0.1500
     28 H28        -3.0648   -1.9201   48.6738 H       1  ZINC000302023461    0.1500
     29 H29        -3.3022    0.2332   47.5060 H       1  ZINC000302023461    0.1600
     30 H30         0.0186    5.9302   48.9733 H       1  ZINC000302023461    0.4400
     31 H31         0.3660    6.1216   51.1283 H       1  ZINC000302023461    0.1300
     32 H32         0.2871    6.4307   53.5646 H       1  ZINC000302023461    0.1500
     33 H33        -1.7090    4.1909   57.0519 H       1  ZINC000302023461    0.1300
     34 H34        -2.9130    4.6230   55.8100 H       1  ZINC000302023461    0.0800
     35 H35        -0.9811    2.2541   55.6671 H       1  ZINC000302023461    0.0800
     36 H36        -2.7233    2.1506   56.0320 H       1  ZINC000302023461    0.1300
     37 H37        -2.0357    2.5904   51.5053 H       1  ZINC000302023461    0.1600
@<TRIPOS>BOND
     1     1     2    2
     2     2     3    2
     3     2     4    1
     4     4     9   ar
     5     4     5   ar
     6     5     6   ar
     7     5    26    1
     8     6     7   ar
     9     6    27    1
    10     7     8   ar
    11     7    28    1
    12     8     9   ar
    13     8    29    1
    14     9    10    1
    15    10    11    1
    16    11    25    1
    17    11    12    2
    18    12    13    1
    19    13    14    1
    20    13    30    1
    21    14    15    1
    22    14    25    2
    23    15    24   ar
    24    15    16   ar
    25    16    17   ar
    26    16    31    1
    27    17    18   ar
    28    17    32    1
    29    18    23   ar
    30    18    19    1
    31    19    20    1
    32    20    21    1
    33    20    33    1
    34    20    34    1
    35    21    22    1
    36    21    35    1
    37    21    36    1
    38    22    23    1
    39    23    24   ar
    40    24    37    1
@<TRIPOS>SUBSTRUCTURE
     1 ZINC000302023461        1 TEMP              0 ****  ****    0 ROOT


##########                                Name:    ZINC000944933040
##########                DOCK_Rotatable_Bonds:                   4
##########                         Heavy_Atoms:                  26
##########                    Molecular_Weight:             354.449
##########                DOCK_Rotatable_Bonds:                   4
##########                       Formal_Charge:           0.0100002
##########                     HBond_Acceptors:                   5
##########                        HBond_Donors:                   0
##########                         Heavy_Atoms:                  26
##########                          Grid_Score:          -26.355597
##########                     Grid_vdw_energy:          -24.767548
##########                      Grid_es_energy:           -1.588050
##########           Internal_energy_repulsive:            9.891721

@<TRIPOS>MOLECULE
ZINC000944933040
 52 57 1 0 0
SMALL
USER_CHARGES


@<TRIPOS>ATOM
      1 O1        -12.8934   -4.5188   55.5531 O.2     1  ZINC000944933040   -0.5200
      2 C2        -12.6016   -3.4102   55.9592 C.2     1  ZINC000944933040    0.6400
      3 C3        -11.8402   -2.5223   55.1330 C.1     1  ZINC000944933040   -0.2200
      4 C4        -11.2160   -1.7945   54.4556 C.1     1  ZINC000944933040   -0.0400
      5 C5        -10.4334   -0.8818   53.6063 C.3     1  ZINC000944933040   -0.0700
      6 C6        -10.7058   -0.9097   52.1010 C.3     1  ZINC000944933040   -0.1600
      7 C7        -11.1780    0.2780   52.9420 C.3     1  ZINC000944933040   -0.1600
      8 N8        -12.9996   -3.0152   57.1848 N.am    1  ZINC000944933040   -0.6000
      9 C9        -13.7755   -3.9196   58.0435 C.3     1  ZINC000944933040    0.1100
     10 C10       -15.0776   -3.2185   58.4489 C.3     1  ZINC000944933040   -0.1200
     11 C11       -14.7457   -1.8504   59.0396 C.3     1  ZINC000944933040   -0.0900
     12 C12       -15.9504   -1.1495   59.6826 C.3     1  ZINC000944933040    0.1200
     13 N13       -15.0218   -0.7754   60.7680 N.am    1  ZINC000944933040   -0.6400
     14 C14       -14.9884    0.2140   61.6826 C.2     1  ZINC000944933040    0.5500
     15 O15       -15.8739    1.0421   61.7127 O.2     1  ZINC000944933040   -0.5300
     16 C16       -13.8507    0.2913   62.6679 C.3     1  ZINC000944933040   -0.1300
     17 H17       -13.4339   -0.6988   62.8526 H       1  ZINC000944933040    0.1100
     18 C18       -14.3155    0.9474   63.9929 C.3     1  ZINC000944933040   -0.1300
     19 C19       -13.4219    2.2210   64.0793 C.3     1  ZINC000944933040    0.0900
     20 H20       -13.8080    3.0210   64.7109 H       1  ZINC000944933040    0.1300
     21 O21       -13.2605    2.5534   62.6612 O.3     1  ZINC000944933040   -0.3600
     22 C22       -12.7478    1.2689   62.1620 C.3     1  ZINC000944933040    0.1200
     23 H23       -12.5265    1.2311   61.0954 H       1  ZINC000944933040    0.1400
     24 C24       -11.5291    1.0407   63.1059 C.3     1  ZINC000944933040   -0.2000
     25 H25       -11.0181    0.0789   63.0638 H       1  ZINC000944933040    0.1200
     26 C26       -10.7923    2.2830   63.6108 C.3     1  ZINC000944933040   -0.1300
     27 C27       -12.0006    1.7025   64.4520 C.3     1  ZINC000944933040   -0.2000
     28 H28       -11.8246    1.2638   65.4342 H       1  ZINC000944933040    0.1300
     29 C29       -14.1450   -1.9203   60.4506 C.3     1  ZINC000944933040    0.1100
     30 C30       -13.9574   -0.9581   58.0840 C.3     1  ZINC000944933040   -0.1100
     31 C31       -12.6580   -1.6763   57.6832 C.3     1  ZINC000944933040    0.1100
     32 H32        -9.4079   -0.7025   53.9292 H       1  ZINC000944933040    0.1400
     33 H33        -9.8594   -0.7487   51.4333 H       1  ZINC000944933040    0.1100
     34 H34       -11.4645   -1.6038   51.7396 H       1  ZINC000944933040    0.1000
     35 H35       -12.2474    0.3653   53.1339 H       1  ZINC000944933040    0.1000
     36 H36       -10.6422    1.2203   52.8276 H       1  ZINC000944933040    0.1100
     37 H37       -14.0075   -4.8334   57.4964 H       1  ZINC000944933040    0.0900
     38 H38       -13.1979   -4.1619   58.9355 H       1  ZINC000944933040    0.0800
     39 H39       -15.7120   -3.0924   57.5715 H       1  ZINC000944933040    0.0800
     40 H40       -15.5989   -3.8202   59.1933 H       1  ZINC000944933040    0.0900
     41 H41       -16.3221   -0.3000   59.1096 H       1  ZINC000944933040    0.0800
     42 H42       -16.7406   -1.8320   59.9956 H       1  ZINC000944933040    0.0900
     43 H43       -15.3699    1.2184   63.9406 H       1  ZINC000944933040    0.0800
     44 H44       -14.1273    0.2856   64.8383 H       1  ZINC000944933040    0.0900
     45 H45        -9.7944    2.1405   64.0257 H       1  ZINC000944933040    0.1000
     46 H46       -10.9436    3.2134   63.0633 H       1  ZINC000944933040    0.1000
     47 H47       -14.3987   -2.8319   60.9918 H       1  ZINC000944933040    0.0900
     48 H48       -13.0817   -1.6836   60.4879 H       1  ZINC000944933040    0.0800
     49 H49       -14.5554   -0.7586   57.1948 H       1  ZINC000944933040    0.0800
     50 H50       -13.7148   -0.0182   58.5796 H       1  ZINC000944933040    0.0800
     51 H51       -12.0038   -1.7595   58.5511 H       1  ZINC000944933040    0.0700
     52 H52       -12.1560   -1.1120   56.8972 H       1  ZINC000944933040    0.1000
@<TRIPOS>BOND
     1     1     2    2
     2     2     3    1
     3     2     8   am
     4     3     4    3
     5     4     5    1
     6     5     7    1
     7     5     6    1
     8     5    32    1
     9     6     7    1
    10     6    33    1
    11     6    34    1
    12     7    35    1
    13     7    36    1
    14     8    31    1
    15     8     9    1
    16     9    10    1
    17     9    37    1
    18     9    38    1
    19    10    11    1
    20    10    39    1
    21    10    40    1
    22    11    29    1
    23    11    12    1
    24    11    30    1
    25    12    13    1
    26    12    41    1
    27    12    42    1
    28    13    14   am
    29    13    29    1
    30    14    15    2
    31    14    16    1
    32    16    17    1
    33    16    22    1
    34    16    18    1
    35    18    19    1
    36    18    43    1
    37    18    44    1
    38    19    20    1
    39    19    27    1
    40    19    21    1
    41    21    22    1
    42    22    23    1
    43    22    24    1
    44    24    25    1
    45    24    27    1
    46    24    26    1
    47    26    27    1
    48    26    45    1
    49    26    46    1
    50    27    28    1
    51    29    47    1
    52    29    48    1
    53    30    31    1
    54    30    49    1
    55    30    50    1
    56    31    51    1
    57    31    52    1
@<TRIPOS>SUBSTRUCTURE
     1 ZINC000944933040        1 TEMP              0 ****  ****    0 ROOT


##########                                Name:    ZINC000768148687
##########                DOCK_Rotatable_Bonds:                   8
##########                         Heavy_Atoms:                  25
##########                    Molecular_Weight:             371.307
##########                DOCK_Rotatable_Bonds:                   8
##########                       Formal_Charge:         2.98023e-08
##########                     HBond_Acceptors:                  11
##########                        HBond_Donors:                   0
##########                         Heavy_Atoms:                  25
##########                          Grid_Score:          -26.312498
##########                     Grid_vdw_energy:          -25.804230
##########                      Grid_es_energy:           -0.508269
##########           Internal_energy_repulsive:           12.863789

@<TRIPOS>MOLECULE
ZINC000768148687
 43 44 1 0 0
SMALL
USER_CHARGES


@<TRIPOS>ATOM
      1 C1         -1.3009   -2.0762   48.0750 C.3     1  ZINC000768148687   -0.1800
      2 C2         -2.1503   -1.0559   47.3145 C.3     1  ZINC000768148687    0.1100
      3 N3         -1.7556    0.2988   47.7085 N.pl3   1  ZINC000768148687   -0.3100
      4 N4         -2.0873    0.9291   48.9130 N.2     1  ZINC000768148687   -0.2000
      5 C5         -1.5673    2.1252   48.9215 C.2     1  ZINC000768148687    0.0200
      6 C6         -1.6865    3.1349   50.0339 C.3     1  ZINC000768148687    0.5500
      7 F7         -2.4626    4.2156   49.6015 F       1  ZINC000768148687   -0.1600
      8 F8         -2.2956    2.5375   51.1426 F       1  ZINC000768148687   -0.1600
      9 F9         -0.4122    3.5889   50.3901 F       1  ZINC000768148687   -0.1500
     10 C10        -0.8725    2.3085   47.7044 C.2     1  ZINC000768148687   -0.1800
     11 C11        -0.1354    3.5148   47.2912 C.2     1  ZINC000768148687    0.5300
     12 O12         1.0711    3.4717   47.1517 O.2     1  ZINC000768148687   -0.4700
     13 O13        -0.7987    4.6664   47.0678 O.3     1  ZINC000768148687   -0.3400
     14 C14         0.0030    5.8558   46.8425 C.3     1  ZINC000768148687    0.0200
     15 C15        -0.9178    7.0625   46.6501 C.3     1  ZINC000768148687    0.0600
     16 N16        -1.7407    7.2472   47.8529 N.3     1  ZINC000768148687   -0.5300
     17 C17        -2.6999    8.3464   47.6713 C.3     1  ZINC000768148687    0.0100
     18 C18        -3.5747    8.4651   48.9221 C.3     1  ZINC000768148687    0.0600
     19 O19        -2.7385    8.6597   50.0658 O.3     1  ZINC000768148687   -0.3800
     20 C20        -1.7926    7.6073   50.2731 C.3     1  ZINC000768148687    0.0600
     21 C21        -0.8996    7.4799   49.0360 C.3     1  ZINC000768148687    0.0100
     22 C22        -1.0098    1.1420   46.9774 C.2     1  ZINC000768148687    0.0600
     23 C23        -0.4365    0.8699   45.6106 C.3     1  ZINC000768148687    0.3400
     24 F24        -0.5774    2.0089   44.8106 F       1  ZINC000768148687   -0.1700
     25 F25         0.9198    0.5484   45.7294 F       1  ZINC000768148687   -0.1800
     26 H26        -1.5946   -3.0841   47.7818 H       1  ZINC000768148687    0.0900
     27 H27        -0.2482   -1.9212   47.8382 H       1  ZINC000768148687    0.0700
     28 H28        -1.4546   -1.9502   49.1467 H       1  ZINC000768148687    0.0700
     29 H29        -1.9966   -1.1819   46.2428 H       1  ZINC000768148687    0.1100
     30 H30        -3.2029   -1.2109   47.5513 H       1  ZINC000768148687    0.1200
     31 H31         0.6502    6.0261   47.7028 H       1  ZINC000768148687    0.0800
     32 H32         0.6135    5.7188   45.9500 H       1  ZINC000768148687    0.0800
     33 H33        -0.3160    7.9554   46.4811 H       1  ZINC000768148687    0.1100
     34 H34        -1.5649    6.8922   45.7897 H       1  ZINC000768148687    0.0900
     35 H35        -2.1587    9.2797   47.5157 H       1  ZINC000768148687    0.0500
     36 H36        -3.3291    8.1411   46.8052 H       1  ZINC000768148687    0.0900
     37 H37        -4.2490    9.3149   48.8153 H       1  ZINC000768148687    0.1000
     38 H38        -4.1562    7.5517   49.0475 H       1  ZINC000768148687    0.0600
     39 H39        -1.1779    7.8367   51.1435 H       1  ZINC000768148687    0.1000
     40 H40        -2.3222    6.6690   50.4378 H       1  ZINC000768148687    0.0600
     41 H41        -0.2147    6.6421   49.1662 H       1  ZINC000768148687    0.0800
     42 H42        -0.3297    8.3994   48.9023 H       1  ZINC000768148687    0.0700
     43 H43        -0.9687    0.0361   45.1527 H       1  ZINC000768148687    0.1500
@<TRIPOS>BOND
     1     1     2    1
     2     1    26    1
     3     1    27    1
     4     1    28    1
     5     2     3    1
     6     2    29    1
     7     2    30    1
     8     3    22    1
     9     3     4    1
    10     4     5    2
    11     5     6    1
    12     5    10    1
    13     6     7    1
    14     6     8    1
    15     6     9    1
    16    10    11    1
    17    10    22    2
    18    11    12    2
    19    11    13    1
    20    13    14    1
    21    14    15    1
    22    14    31    1
    23    14    32    1
    24    15    16    1
    25    15    33    1
    26    15    34    1
    27    16    21    1
    28    16    17    1
    29    17    18    1
    30    17    35    1
    31    17    36    1
    32    18    19    1
    33    18    37    1
    34    18    38    1
    35    19    20    1
    36    20    21    1
    37    20    39    1
    38    20    40    1
    39    21    41    1
    40    21    42    1
    41    22    23    1
    42    23    24    1
    43    23    25    1
    44    23    43    1
@<TRIPOS>SUBSTRUCTURE
     1 ZINC000768148687        1 TEMP              0 ****  ****    0 ROOT


##########                                Name:    ZINC000879023512
##########                DOCK_Rotatable_Bonds:                   4
##########                         Heavy_Atoms:                  20
##########                    Molecular_Weight:             346.156
##########                DOCK_Rotatable_Bonds:                   4
##########                       Formal_Charge:        -5.96046e-08
##########                     HBond_Acceptors:                   7
##########                        HBond_Donors:                   1
##########                         Heavy_Atoms:                  20
##########                          Grid_Score:          -26.170074
##########                     Grid_vdw_energy:          -24.340725
##########                      Grid_es_energy:           -1.829350
##########           Internal_energy_repulsive:            3.741593

@<TRIPOS>MOLECULE
ZINC000879023512
 33 34 1 0 0
SMALL
USER_CHARGES


@<TRIPOS>ATOM
      1 O1          1.8558    2.8442   44.6973 O.2     1  ZINC000879023512   -0.5600
      2 C2          1.3822    3.8124   45.2599 C.2     1  ZINC000879023512    0.7200
      3 N3          0.4782    3.6438   46.2452 N.am    1  ZINC000879023512   -0.6800
      4 C4          0.0805    2.3542   46.6170 C.ar    1  ZINC000879023512    0.1800
      5 C5          0.5776    1.7814   47.7799 C.ar    1  ZINC000879023512   -0.0900
      6 C6          0.1836    0.5086   48.1445 C.ar    1  ZINC000879023512   -0.0700
      7 C7         -0.7051   -0.1954   47.3519 C.ar    1  ZINC000879023512   -0.0700
      8 Br8        -1.2423   -1.9375   47.8542 Br      1  ZINC000879023512    0.0200
      9 C9         -1.2022    0.3733   46.1923 C.ar    1  ZINC000879023512    0.0000
     10 N10        -2.1530   -0.3829   45.3467 N.pl3   1  ZINC000879023512    0.0200
     11 O11        -2.5907    0.1170   44.3259 O.2     1  ZINC000879023512   -0.1500
     12 O12        -2.4975   -1.5051   45.6715 O.2     1  ZINC000879023512   -0.1300
     13 C13        -0.8164    1.6477   45.8264 C.ar    1  ZINC000879023512   -0.0500
     14 N14         1.7652    5.0540   44.9019 N.am    1  ZINC000879023512   -0.6300
     15 C15         1.2842    6.3061   45.5040 C.3     1  ZINC000879023512    0.0900
     16 C16         1.9757    7.4677   44.7598 C.3     1  ZINC000879023512   -0.1200
     17 C17         2.3761    6.8237   43.4062 C.3     1  ZINC000879023512   -0.1400
     18 H18         1.5371    6.8233   42.7103 H       1  ZINC000879023512    0.1000
     19 C19         3.5882    7.5328   42.7988 C.3     1  ZINC000879023512    0.0700
     20 F20         4.6724    7.4392   43.6780 F       1  ZINC000879023512   -0.2100
     21 C21         2.7406    5.3815   43.8461 C.3     1  ZINC000879023512    0.1300
     22 H22         0.1033    4.4161   46.6967 H       1  ZINC000879023512    0.4200
     23 H23         1.2721    2.3303   48.3987 H       1  ZINC000879023512    0.1600
     24 H24         0.5700    0.0626   49.0490 H       1  ZINC000879023512    0.1600
     25 H25        -1.2049    2.0911   44.9215 H       1  ZINC000879023512    0.1800
     26 H26         0.2031    6.3823   45.3871 H       1  ZINC000879023512    0.0700
     27 H27         1.5476    6.3342   46.5613 H       1  ZINC000879023512    0.0700
     28 H28         1.2813    8.2934   44.6036 H       1  ZINC000879023512    0.0900
     29 H29         2.8588    7.8028   45.3036 H       1  ZINC000879023512    0.0900
     30 H30         3.8476    7.0612   41.8509 H       1  ZINC000879023512    0.0800
     31 H31         3.3478    8.5822   42.6287 H       1  ZINC000879023512    0.0800
     32 H32         3.7571    5.3499   44.2384 H       1  ZINC000879023512    0.0800
     33 H33         2.6344    4.6913   43.0091 H       1  ZINC000879023512    0.0900
@<TRIPOS>BOND
     1     1     2    2
     2     2     3   am
     3     2    14   am
     4     3     4    1
     5     3    22    1
     6     4    13   ar
     7     4     5   ar
     8     5     6   ar
     9     5    23    1
    10     6     7   ar
    11     6    24    1
    12     7     8    1
    13     7     9   ar
    14     9    10    1
    15     9    13   ar
    16    10    11    2
    17    10    12    2
    18    13    25    1
    19    14    21    1
    20    14    15    1
    21    15    16    1
    22    15    26    1
    23    15    27    1
    24    16    17    1
    25    16    28    1
    26    16    29    1
    27    17    18    1
    28    17    19    1
    29    17    21    1
    30    19    20    1
    31    19    30    1
    32    19    31    1
    33    21    32    1
    34    21    33    1
@<TRIPOS>SUBSTRUCTURE
     1 ZINC000879023512        1 TEMP              0 ****  ****    0 ROOT


##########                                Name:    ZINC000863208514
##########                DOCK_Rotatable_Bonds:                   6
##########                         Heavy_Atoms:                  19
##########                    Molecular_Weight:             368.657
##########                DOCK_Rotatable_Bonds:                   6
##########                       Formal_Charge:           0.0100005
##########                     HBond_Acceptors:                   7
##########                        HBond_Donors:                   2
##########                         Heavy_Atoms:                  19
##########                          Grid_Score:          -26.141932
##########                     Grid_vdw_energy:          -25.080494
##########                      Grid_es_energy:           -1.061437
##########           Internal_energy_repulsive:            6.243746

@<TRIPOS>MOLECULE
ZINC000863208514
 31 31 1 0 0
SMALL
USER_CHARGES


@<TRIPOS>ATOM
      1 C1         -7.9918   -0.5971   61.3088 C.3     1  ZINC000863208514    0.0900
      2 N2         -9.3837   -1.0428   61.4107 N.am    1  ZINC000863208514   -0.6100
      3 C3         -9.9918   -1.2503   62.7273 C.3     1  ZINC000863208514    0.0700
      4 C4        -10.1046   -1.2621   60.2932 C.2     1  ZINC000863208514    0.5100
      5 O5         -9.6006   -1.0918   59.2033 O.2     1  ZINC000863208514   -0.5400
      6 C6        -11.5368   -1.7189   60.3982 C.3     1  ZINC000863208514    0.1100
      7 N7        -12.0761   -1.9473   59.0553 N.am    1  ZINC000863208514   -0.6600
      8 C8        -13.3256   -2.4294   58.9039 C.2     1  ZINC000863208514    0.5600
      9 S9        -14.2818   -2.7766   60.2809 S.2     1  ZINC000863208514   -0.6000
     10 N10       -13.8223   -2.6381   57.6685 N.am    1  ZINC000863208514   -0.6300
     11 C11       -13.0400   -2.3541   56.5421 C.ar    1  ZINC000863208514    0.1200
     12 C12       -12.8606   -1.0402   56.1337 C.ar    1  ZINC000863208514   -0.0300
     13 C13       -12.0873   -0.7623   55.0215 C.ar    1  ZINC000863208514   -0.0200
     14 Cl14      -11.8621    0.8815   54.5107 Cl      1  ZINC000863208514   -0.0300
     15 C15       -11.4921   -1.7933   54.3152 C.ar    1  ZINC000863208514   -0.0600
     16 Br16      -10.4355   -1.4089   52.7948 Br      1  ZINC000863208514   -0.0100
     17 C17       -11.6685   -3.1048   54.7199 C.ar    1  ZINC000863208514   -0.1100
     18 C18       -12.4367   -3.3881   55.8339 C.ar    1  ZINC000863208514    0.1100
     19 F19       -12.6089   -4.6686   56.2289 F       1  ZINC000863208514   -0.1200
     20 H20        -7.5756   -0.4741   62.3086 H       1  ZINC000863208514    0.0800
     21 H21        -7.4113   -1.3405   60.7625 H       1  ZINC000863208514    0.0700
     22 H22        -7.9530    0.3549   60.7793 H       1  ZINC000863208514    0.0700
     23 H23       -10.4554   -0.3228   63.0636 H       1  ZINC000863208514    0.0700
     24 H24       -10.7492   -2.0310   62.6587 H       1  ZINC000863208514    0.0800
     25 H25        -9.2232   -1.5512   63.4391 H       1  ZINC000863208514    0.0800
     26 H26       -11.5817   -2.6456   60.9702 H       1  ZINC000863208514    0.1200
     27 H27       -12.1267   -0.9525   60.9010 H       1  ZINC000863208514    0.1200
     28 H28       -11.5339   -1.7518   58.2752 H       1  ZINC000863208514    0.4100
     29 H29       -14.7216   -2.9851   57.5595 H       1  ZINC000863208514    0.4200
     30 H30       -13.3247   -0.2351   56.6840 H       1  ZINC000863208514    0.1800
     31 H31       -11.2031   -3.9074   54.1670 H       1  ZINC000863208514    0.1600
@<TRIPOS>BOND
     1     1     2    1
     2     1    20    1
     3     1    21    1
     4     1    22    1
     5     2     3    1
     6     2     4   am
     7     3    23    1
     8     3    24    1
     9     3    25    1
    10     4     5    2
    11     4     6    1
    12     6     7    1
    13     6    26    1
    14     6    27    1
    15     7     8   am
    16     7    28    1
    17     8     9    2
    18     8    10   am
    19    10    11    1
    20    10    29    1
    21    11    18   ar
    22    11    12   ar
    23    12    13   ar
    24    12    30    1
    25    13    14    1
    26    13    15   ar
    27    15    16    1
    28    15    17   ar
    29    17    18   ar
    30    17    31    1
    31    18    19    1
@<TRIPOS>SUBSTRUCTURE
     1 ZINC000863208514        1 TEMP              0 ****  ****    0 ROOT


##########                                Name:    ZINC000543429378
##########                DOCK_Rotatable_Bonds:                   6
##########                         Heavy_Atoms:                  29
##########                    Molecular_Weight:             406.408
##########                DOCK_Rotatable_Bonds:                   6
##########                       Formal_Charge:           0.0100003
##########                     HBond_Acceptors:                   9
##########                        HBond_Donors:                   1
##########                         Heavy_Atoms:                  29
##########                          Grid_Score:          -26.104671
##########                     Grid_vdw_energy:          -26.242908
##########                      Grid_es_energy:            0.138237
##########           Internal_energy_repulsive:           40.405613

@<TRIPOS>MOLECULE
ZINC000543429378
 50 53 1 0 0
SMALL
USER_CHARGES


@<TRIPOS>ATOM
      1 O1        -13.9242   -0.3985   59.6643 O.2     1  ZINC000543429378   -0.5100
      2 C2        -13.9138   -1.4922   60.1885 C.2     1  ZINC000543429378    0.5200
      3 N3        -14.8723   -2.3916   59.8904 N.am    1  ZINC000543429378   -0.6600
      4 C4        -15.8826   -2.0616   58.9804 C.ar    1  ZINC000543429378    0.1900
      5 C5        -16.8072   -1.0744   59.2959 C.ar    1  ZINC000543429378   -0.1600
      6 C6        -17.8046   -0.7482   58.3970 C.ar    1  ZINC000543429378   -0.0600
      7 C7        -17.8852   -1.4029   57.1829 C.ar    1  ZINC000543429378   -0.2100
      8 C8        -16.9637   -2.3903   56.8623 C.ar    1  ZINC000543429378    0.1300
      9 O9        -17.0443   -3.0334   55.6678 O.3     1  ZINC000543429378   -0.3100
     10 C10       -18.1027   -2.6427   54.7908 C.3     1  ZINC000543429378    0.6000
     11 F11       -17.9728   -1.2851   54.4788 F       1  ZINC000543429378   -0.1600
     12 F12       -18.0380   -3.3994   53.6159 F       1  ZINC000543429378   -0.1300
     13 F13       -19.3334   -2.8612   55.4190 F       1  ZINC000543429378   -0.1600
     14 C14       -15.9586   -2.7163   57.7589 C.ar    1  ZINC000543429378   -0.1300
     15 C15       -12.8257   -1.8477   61.1687 C.3     1  ZINC000543429378    0.0700
     16 H16       -13.1639   -2.6504   61.8239 H       1  ZINC000543429378    0.1200
     17 C17       -12.4451   -0.6003   62.0125 C.3     1  ZINC000543429378   -0.1200
     18 C18       -10.9221   -0.7583   62.1401 C.3     1  ZINC000543429378   -0.1000
     19 H19       -10.6670   -1.4989   62.8980 H       1  ZINC000543429378    0.0900
     20 C20       -10.1525    0.5330   62.3602 C.3     1  ZINC000543429378   -0.1100
     21 C21        -8.6562    0.1831   62.3332 C.3     1  ZINC000543429378   -0.1200
     22 C22        -8.2596   -0.4757   61.0153 C.3     1  ZINC000543429378   -0.1100
     23 C23        -9.1303   -1.7085   60.7207 C.3     1  ZINC000543429378   -0.0900
     24 C24       -10.5758   -1.2688   60.7150 C.3     1  ZINC000543429378    0.0700
     25 H25       -10.6963   -0.4389   60.0186 H       1  ZINC000543429378    0.0900
     26 N26       -11.6036   -2.2719   60.4369 N.3     1  ZINC000543429378   -0.4300
     27 C27       -11.8564   -2.3600   59.0790 C.ar    1  ZINC000543429378    0.5000
     28 N28       -12.3367   -3.4907   58.5826 N.ar    1  ZINC000543429378   -0.5300
     29 C29       -12.5897   -3.6079   57.2896 C.ar    1  ZINC000543429378    0.1800
     30 C30       -12.3463   -2.5302   56.4526 C.ar    1  ZINC000543429378   -0.2500
     31 C31       -11.8437   -1.3626   57.0050 C.ar    1  ZINC000543429378    0.1800
     32 N32       -11.6174   -1.3099   58.3072 N.ar    1  ZINC000543429378   -0.5300
     33 H33       -14.8617   -3.2676   60.3067 H       1  ZINC000543429378    0.4200
     34 H34       -16.7469   -0.5618   60.2445 H       1  ZINC000543429378    0.1400
     35 H35       -18.5228    0.0196   58.6441 H       1  ZINC000543429378    0.1400
     36 H36       -18.6662   -1.1462   56.4826 H       1  ZINC000543429378    0.1400
     37 H37       -15.2407   -3.4843   57.5111 H       1  ZINC000543429378    0.1500
     38 H38       -12.6987    0.3193   61.4852 H       1  ZINC000543429378    0.0800
     39 H39       -12.9234   -0.6312   62.9915 H       1  ZINC000543429378    0.0900
     40 H40       -10.3821    1.2417   61.5646 H       1  ZINC000543429378    0.0700
     41 H41       -10.4158    0.9615   63.3273 H       1  ZINC000543429378    0.0700
     42 H42        -8.0745    1.0955   62.4645 H       1  ZINC000543429378    0.0600
     43 H43        -8.4351   -0.4999   63.1534 H       1  ZINC000543429378    0.0600
     44 H44        -8.3774    0.2456   60.2065 H       1  ZINC000543429378    0.0600
     45 H45        -7.2149   -0.7815   61.0696 H       1  ZINC000543429378    0.0700
     46 H46        -8.8658   -2.1254   59.7489 H       1  ZINC000543429378    0.0700
     47 H47        -8.9860   -2.4586   61.4984 H       1  ZINC000543429378    0.0700
     48 H48       -12.9809   -4.5321   56.8908 H       1  ZINC000543429378    0.1600
     49 H49       -12.5436   -2.5990   55.3930 H       1  ZINC000543429378    0.1400
     50 H50       -11.6427   -0.5048   56.3803 H       1  ZINC000543429378    0.1600
@<TRIPOS>BOND
     1     1     2    2
     2     2     3   am
     3     2    15    1
     4     3     4    1
     5     3    33    1
     6     4    14   ar
     7     4     5   ar
     8     5     6   ar
     9     5    34    1
    10     6     7   ar
    11     6    35    1
    12     7     8   ar
    13     7    36    1
    14     8     9    1
    15     8    14   ar
    16     9    10    1
    17    10    11    1
    18    10    12    1
    19    10    13    1
    20    14    37    1
    21    15    16    1
    22    15    26    1
    23    15    17    1
    24    17    18    1
    25    17    38    1
    26    17    39    1
    27    18    19    1
    28    18    24    1
    29    18    20    1
    30    20    21    1
    31    20    40    1
    32    20    41    1
    33    21    22    1
    34    21    42    1
    35    21    43    1
    36    22    23    1
    37    22    44    1
    38    22    45    1
    39    23    24    1
    40    23    46    1
    41    23    47    1
    42    24    25    1
    43    24    26    1
    44    26    27    1
    45    27    32   ar
    46    27    28   ar
    47    28    29   ar
    48    29    30   ar
    49    29    48    1
    50    30    31   ar
    51    30    49    1
    52    31    32   ar
    53    31    50    1
@<TRIPOS>SUBSTRUCTURE
     1 ZINC000543429378        1 TEMP              0 ****  ****    0 ROOT


##########                                Name:    ZINC000521663393
##########                DOCK_Rotatable_Bonds:                   5
##########                         Heavy_Atoms:                  27
##########                    Molecular_Weight:              386.49
##########                DOCK_Rotatable_Bonds:                   5
##########                       Formal_Charge:               -0.02
##########                     HBond_Acceptors:                   6
##########                        HBond_Donors:                   1
##########                         Heavy_Atoms:                  27
##########                          Grid_Score:          -26.091515
##########                     Grid_vdw_energy:          -25.566635
##########                      Grid_es_energy:           -0.524879
##########           Internal_energy_repulsive:           14.177490

@<TRIPOS>MOLECULE
ZINC000521663393
 50 53 1 0 0
SMALL
USER_CHARGES


@<TRIPOS>ATOM
      1 C1         -1.9244   -0.6619   48.1325 C.3     1  ZINC000521663393   -0.1500
      2 C2         -1.8860    0.5260   47.1690 C.3     1  ZINC000521663393    0.0800
      3 H3         -2.8937    0.8868   46.9628 H       1  ZINC000521663393    0.0900
      4 O4         -1.2126    0.1709   45.9493 O.3     1  ZINC000521663393   -0.2900
      5 C5         -0.5390    1.2554   45.4768 C.ar    1  ZINC000521663393    0.1400
      6 C6         -0.0512    1.5159   44.1993 C.ar    1  ZINC000521663393   -0.1800
      7 C7          0.6219    2.6943   43.9386 C.ar    1  ZINC000521663393    0.1400
      8 F8          1.0928    2.9392   42.6962 F       1  ZINC000521663393   -0.1300
      9 C9          0.8156    3.6254   44.9451 C.ar    1  ZINC000521663393   -0.1800
     10 C10         0.3290    3.3741   46.2156 C.ar    1  ZINC000521663393   -0.0200
     11 C11        -0.3448    2.2016   46.4757 C.ar    1  ZINC000521663393   -0.2000
     12 C12        -1.0020    1.6624   47.7351 C.3     1  ZINC000521663393    0.1700
     13 H13        -0.2563    1.2692   48.4258 H       1  ZINC000521663393    0.1200
     14 N14        -1.8188    2.6927   48.3814 N.am    1  ZINC000521663393   -0.7200
     15 C15        -1.2920    3.4540   49.3610 C.2     1  ZINC000521663393    0.5300
     16 O16        -0.1415    3.2872   49.7063 O.2     1  ZINC000521663393   -0.5000
     17 C17        -2.1327    4.5126   50.0271 C.3     1  ZINC000521663393    0.1200
     18 H18        -3.1588    4.4421   49.6662 H       1  ZINC000521663393    0.0700
     19 C19        -2.1098    4.3065   51.5198 C.ar    1  ZINC000521663393   -0.0900
     20 C20        -3.2644    3.9374   52.1844 C.ar    1  ZINC000521663393   -0.0900
     21 C21        -3.2435    3.7484   53.5535 C.ar    1  ZINC000521663393   -0.1200
     22 C22        -2.0679    3.9281   54.2582 C.ar    1  ZINC000521663393   -0.1100
     23 C23        -0.9131    4.2963   53.5935 C.ar    1  ZINC000521663393   -0.1200
     24 C24        -0.9330    4.4812   52.2237 C.ar    1  ZINC000521663393   -0.1100
     25 N25        -1.5915    5.8404   49.7078 N.3     1  ZINC000521663393   -0.5300
     26 C26        -2.2964    6.8873   50.4510 C.3     1  ZINC000521663393    0.0500
     27 C27        -1.4625    8.1730   50.4572 C.3     1  ZINC000521663393   -0.0700
     28 S28        -1.2595    8.7376   48.7401 S.3     1  ZINC000521663393   -0.2700
     29 C29        -0.6527    7.2323   47.9189 C.3     1  ZINC000521663393   -0.0700
     30 C30        -1.5981    6.0761   48.2622 C.3     1  ZINC000521663393    0.0600
     31 H31        -2.3762   -0.3511   49.0746 H       1  ZINC000521663393    0.0800
     32 H32        -2.5150   -1.4663   47.6941 H       1  ZINC000521663393    0.0800
     33 H33        -0.9093   -1.0145   48.3152 H       1  ZINC000521663393    0.0700
     34 H34        -0.1989    0.7943   43.4093 H       1  ZINC000521663393    0.1400
     35 H35         1.3448    4.5441   44.7392 H       1  ZINC000521663393    0.1400
     36 H36         0.4775    4.0977   47.0035 H       1  ZINC000521663393    0.1300
     37 H37        -2.7386    2.8270   48.1045 H       1  ZINC000521663393    0.4000
     38 H38        -4.1829    3.7970   51.6338 H       1  ZINC000521663393    0.1300
     39 H39        -4.1457    3.4607   54.0728 H       1  ZINC000521663393    0.1300
     40 H40        -2.0516    3.7811   55.3280 H       1  ZINC000521663393    0.1200
     41 H41         0.0054    4.4371   54.1440 H       1  ZINC000521663393    0.1300
     42 H42        -0.0308    4.7689   51.7044 H       1  ZINC000521663393    0.1200
     43 H43        -3.2588    7.0820   49.9776 H       1  ZINC000521663393    0.0500
     44 H44        -2.4592    6.5562   51.4767 H       1  ZINC000521663393    0.1000
     45 H45        -1.9763    8.9399   51.0366 H       1  ZINC000521663393    0.1100
     46 H46        -0.4845    7.9728   50.8950 H       1  ZINC000521663393    0.0900
     47 H47        -0.6373    7.3847   46.8397 H       1  ZINC000521663393    0.1100
     48 H48         0.3519    7.0015   48.2733 H       1  ZINC000521663393    0.1000
     49 H49        -1.2691    5.1739   47.7466 H       1  ZINC000521663393    0.0800
     50 H50        -2.6089    6.3273   47.9409 H       1  ZINC000521663393    0.0500
@<TRIPOS>BOND
     1     1     2    1
     2     1    31    1
     3     1    32    1
     4     1    33    1
     5     2     3    1
     6     2    12    1
     7     2     4    1
     8     4     5    1
     9     5    11   ar
    10     5     6   ar
    11     6     7   ar
    12     6    34    1
    13     7     8    1
    14     7     9   ar
    15     9    10   ar
    16     9    35    1
    17    10    11   ar
    18    10    36    1
    19    11    12    1
    20    12    13    1
    21    12    14    1
    22    14    15   am
    23    14    37    1
    24    15    16    2
    25    15    17    1
    26    17    18    1
    27    17    19    1
    28    17    25    1
    29    19    24   ar
    30    19    20   ar
    31    20    21   ar
    32    20    38    1
    33    21    22   ar
    34    21    39    1
    35    22    23   ar
    36    22    40    1
    37    23    24   ar
    38    23    41    1
    39    24    42    1
    40    25    30    1
    41    25    26    1
    42    26    27    1
    43    26    43    1
    44    26    44    1
    45    27    28    1
    46    27    45    1
    47    27    46    1
    48    28    29    1
    49    29    30    1
    50    29    47    1
    51    29    48    1
    52    30    49    1
    53    30    50    1
@<TRIPOS>SUBSTRUCTURE
     1 ZINC000521663393        1 TEMP              0 ****  ****    0 ROOT


##########                                Name:    ZINC000956479608
##########                DOCK_Rotatable_Bonds:                   5
##########                         Heavy_Atoms:                  25
##########                    Molecular_Weight:             345.442
##########                DOCK_Rotatable_Bonds:                   5
##########                       Formal_Charge:          -0.0100001
##########                     HBond_Acceptors:                   6
##########                        HBond_Donors:                   1
##########                         Heavy_Atoms:                  25
##########                          Grid_Score:          -26.081659
##########                     Grid_vdw_energy:          -25.986614
##########                      Grid_es_energy:           -0.095044
##########           Internal_energy_repulsive:           32.496571

@<TRIPOS>MOLECULE
ZINC000956479608
 52 55 1 0 0
SMALL
USER_CHARGES


@<TRIPOS>ATOM
      1 C1         -7.9324    1.9940   55.6455 C.3     1  ZINC000956479608   -0.0900
      2 C2         -7.2335    2.4862   54.4044 C.2     1  ZINC000956479608   -0.1100
      3 C3         -7.6772    2.4384   53.1110 C.2     1  ZINC000956479608   -0.1000
      4 C4         -8.9590    1.8866   52.6332 C.2     1  ZINC000956479608    0.6100
      5 O5         -9.0779    1.5418   51.4733 O.2     1  ZINC000956479608   -0.5000
      6 N6         -9.9984    1.7644   53.4825 N.am    1  ZINC000956479608   -0.7100
      7 C7        -11.2720    1.2180   53.0076 C.3     1  ZINC000956479608    0.1800
      8 C8        -11.8371    2.1222   51.9102 C.3     1  ZINC000956479608   -0.1700
      9 C9        -11.0457   -0.1867   52.4440 C.3     1  ZINC000956479608   -0.1500
     10 C10       -10.4479   -1.0802   53.5353 C.3     1  ZINC000956479608    0.1100
     11 N11       -11.3236   -1.0369   54.7142 N.am    1  ZINC000956479608   -0.6100
     12 C12       -11.7917   -2.1749   55.2641 C.2     1  ZINC000956479608    0.5500
     13 O13       -11.4895   -3.2480   54.7867 O.2     1  ZINC000956479608   -0.5400
     14 C14       -12.6904   -2.1138   56.4722 C.3     1  ZINC000956479608   -0.1900
     15 H15       -13.6482   -1.6159   56.3214 H       1  ZINC000956479608    0.1200
     16 C16       -12.6532   -3.2912   57.4377 C.3     1  ZINC000956479608   -0.1100
     17 H17       -11.9591   -4.0928   57.1849 H       1  ZINC000956479608    0.1000
     18 C18       -13.9324   -3.7517   58.1192 C.3     1  ZINC000956479608   -0.0900
     19 C19       -14.6632   -2.5639   58.7452 C.3     1  ZINC000956479608   -0.1200
     20 C20       -13.6966   -1.8363   59.6867 C.3     1  ZINC000956479608   -0.1200
     21 C21       -12.6945   -1.0488   58.8424 C.3     1  ZINC000956479608   -0.0900
     22 C22       -12.0222   -1.9672   57.8481 C.3     1  ZINC000956479608   -0.1100
     23 H23       -10.9325   -1.9485   57.8572 H       1  ZINC000956479608    0.1100
     24 C24       -11.6789    0.2705   55.2826 C.3     1  ZINC000956479608    0.1000
     25 C25       -12.2629    1.1489   54.1718 C.3     1  ZINC000956479608   -0.1400
     26 O26        -6.7074    2.9973   52.3625 O.3     1  ZINC000956479608    0.1200
     27 N27        -5.7751    3.3567   53.0428 N.2     1  ZINC000956479608   -0.3400
     28 C28        -5.9699    3.1100   54.3056 C.2     1  ZINC000956479608   -0.0100
     29 H29        -8.5456    2.7949   56.0589 H       1  ZINC000956479608    0.0800
     30 H30        -8.5668    1.1445   55.3926 H       1  ZINC000956479608    0.0900
     31 H31        -7.1906    1.6869   56.3827 H       1  ZINC000956479608    0.0800
     32 H32        -9.9032    2.0383   54.4081 H       1  ZINC000956479608    0.4100
     33 H33       -11.1312    2.1720   51.0811 H       1  ZINC000956479608    0.0800
     34 H34       -12.7847    1.7158   51.5568 H       1  ZINC000956479608    0.0700
     35 H35       -11.9979    3.1230   52.3111 H       1  ZINC000956479608    0.0600
     36 H36       -11.9969   -0.6036   52.1130 H       1  ZINC000956479608    0.0800
     37 H37       -10.3580   -0.1337   51.5999 H       1  ZINC000956479608    0.1000
     38 H38       -10.3767   -2.1048   53.1704 H       1  ZINC000956479608    0.0900
     39 H39        -9.4561   -0.7159   53.8032 H       1  ZINC000956479608    0.0600
     40 H40       -14.5814   -4.2259   57.3831 H       1  ZINC000956479608    0.0700
     41 H41       -13.6854   -4.4731   58.8980 H       1  ZINC000956479608    0.0700
     42 H42       -14.9928   -1.8823   57.9611 H       1  ZINC000956479608    0.0600
     43 H43       -15.5248   -2.9205   59.3096 H       1  ZINC000956479608    0.0700
     44 H44       -14.2542   -1.1518   60.3261 H       1  ZINC000956479608    0.0700
     45 H45       -13.1660   -2.5642   60.3004 H       1  ZINC000956479608    0.0700
     46 H46       -13.2179   -0.2591   58.3036 H       1  ZINC000956479608    0.0700
     47 H47       -11.9445   -0.6021   59.4952 H       1  ZINC000956479608    0.0700
     48 H48       -12.4200    0.1371   56.0707 H       1  ZINC000956479608    0.0900
     49 H49       -10.7875    0.7450   55.6930 H       1  ZINC000956479608    0.0700
     50 H50       -12.4416    2.1525   54.5575 H       1  ZINC000956479608    0.0900
     51 H51       -13.2028    0.7194   53.8246 H       1  ZINC000956479608    0.0900
     52 H52        -5.2940    3.3314   55.1183 H       1  ZINC000956479608    0.2000
@<TRIPOS>BOND
     1     1     2    1
     2     1    29    1
     3     1    30    1
     4     1    31    1
     5     2    28    1
     6     2     3    2
     7     3     4    1
     8     3    26    1
     9     4     5    2
    10     4     6   am
    11     6     7    1
    12     6    32    1
    13     7    25    1
    14     7     8    1
    15     7     9    1
    16     8    33    1
    17     8    34    1
    18     8    35    1
    19     9    10    1
    20     9    36    1
    21     9    37    1
    22    10    11    1
    23    10    38    1
    24    10    39    1
    25    11    12   am
    26    11    24    1
    27    12    13    2
    28    12    14    1
    29    14    15    1
    30    14    22    1
    31    14    16    1
    32    16    17    1
    33    16    22    1
    34    16    18    1
    35    18    19    1
    36    18    40    1
    37    18    41    1
    38    19    20    1
    39    19    42    1
    40    19    43    1
    41    20    21    1
    42    20    44    1
    43    20    45    1
    44    21    22    1
    45    21    46    1
    46    21    47    1
    47    22    23    1
    48    24    25    1
    49    24    48    1
    50    24    49    1
    51    25    50    1
    52    25    51    1
    53    26    27    1
    54    27    28    2
    55    28    52    1
@<TRIPOS>SUBSTRUCTURE
     1 ZINC000956479608        1 TEMP              0 ****  ****    0 ROOT


##########                                Name:    ZINC001067560454
##########                DOCK_Rotatable_Bonds:                   4
##########                         Heavy_Atoms:                  25
##########                    Molecular_Weight:             342.444
##########                DOCK_Rotatable_Bonds:                   4
##########                       Formal_Charge:          0.00999971
##########                     HBond_Acceptors:                   7
##########                        HBond_Donors:                   1
##########                         Heavy_Atoms:                  25
##########                          Grid_Score:          -26.065237
##########                     Grid_vdw_energy:          -24.778717
##########                      Grid_es_energy:           -1.286520
##########           Internal_energy_repulsive:           11.055353

@<TRIPOS>MOLECULE
ZINC001067560454
 51 54 1 0 0
SMALL
USER_CHARGES


@<TRIPOS>ATOM
      1 C1         -0.1730    5.4876   51.2299 C.3     1  ZINC001067560454   -0.1500
      2 C2         -0.8240    4.6106   50.1584 C.3     1  ZINC001067560454    0.1000
      3 H3         -1.5633    5.1951   49.6106 H       1  ZINC001067560454    0.0600
      4 C4          0.2488    4.1084   49.1895 C.3     1  ZINC001067560454   -0.1200
      5 C5         -0.4041    3.2152   48.1311 C.3     1  ZINC001067560454    0.1400
      6 H6         -1.1233    3.7983   47.5557 H       1  ZINC001067560454    0.0900
      7 N7          0.6261    2.6857   47.2342 N.am    1  ZINC001067560454   -0.7200
      8 C8          0.2905    2.2560   46.0017 C.2     1  ZINC001067560454    0.5400
      9 O9         -0.8645    2.3064   45.6355 O.2     1  ZINC001067560454   -0.5300
     10 C10         1.3507    1.7129   45.0783 C.3     1  ZINC001067560454   -0.1100
     11 C11         2.3619    0.8172   45.7966 C.3     1  ZINC001067560454   -0.1300
     12 C12         0.7863    1.0962   43.7876 C.3     1  ZINC001067560454   -0.1200
     13 C13         0.8881    2.4991   43.1660 C.3     1  ZINC001067560454   -0.1400
     14 C14         2.0007    2.7854   44.1884 C.3     1  ZINC001067560454   -0.1200
     15 C15        -1.1242    2.0564   48.8261 C.3     1  ZINC001067560454   -0.1200
     16 C16        -2.1573    2.6181   49.8055 C.3     1  ZINC001067560454    0.0600
     17 N17        -1.4827    3.4646   50.7979 N.3     1  ZINC001067560454   -0.4900
     18 C18        -2.3678    3.8838   51.7758 C.ar    1  ZINC001067560454    0.4400
     19 C19        -2.1679    3.5373   53.1228 C.ar    1  ZINC001067560454   -0.0800
     20 N20        -1.2343    2.8208   53.7936 N.2     1  ZINC001067560454   -0.4700
     21 C21        -1.5271    2.8078   55.0616 C.2     1  ZINC001067560454    0.2700
     22 N22        -2.6699    3.5171   55.2831 N.pl3   1  ZINC001067560454   -0.4800
     23 C23        -3.3192    3.7326   56.5786 C.3     1  ZINC001067560454    0.0800
     24 C24        -3.1003    3.9928   54.0704 C.ar    1  ZINC001067560454    0.2800
     25 N25        -4.1287    4.7290   53.6623 N.ar    1  ZINC001067560454   -0.5200
     26 C26        -4.2755    5.0294   52.3891 C.ar    1  ZINC001067560454    0.3300
     27 N27        -3.4237    4.6282   51.4634 N.ar    1  ZINC001067560454   -0.5100
     28 H28         0.5662    4.9033   51.7778 H       1  ZINC001067560454    0.0700
     29 H29         0.3156    6.3386   50.7553 H       1  ZINC001067560454    0.0700
     30 H30        -0.9371    5.8458   51.9198 H       1  ZINC001067560454    0.0500
     31 H31         0.7270    4.9588   48.7034 H       1  ZINC001067560454    0.0800
     32 H32         0.9957    3.5352   49.7389 H       1  ZINC001067560454    0.0800
     33 H33         1.5498    2.6443   47.5274 H       1  ZINC001067560454    0.4000
     34 H34         1.8309    0.0681   46.3840 H       1  ZINC001067560454    0.0600
     35 H35         2.9944    0.3206   45.0607 H       1  ZINC001067560454    0.0700
     36 H36         2.9809    1.4247   46.4568 H       1  ZINC001067560454    0.0600
     37 H37         1.4502    0.3650   43.3265 H       1  ZINC001067560454    0.0900
     38 H38        -0.2377    0.7361   43.8873 H       1  ZINC001067560454    0.0700
     39 H39         1.2352    2.4948   42.1328 H       1  ZINC001067560454    0.0700
     40 H40        -0.0050    3.1068   43.3110 H       1  ZINC001067560454    0.0800
     41 H41         1.9571    3.7890   44.6115 H       1  ZINC001067560454    0.0800
     42 H42         2.9967    2.5161   43.8369 H       1  ZINC001067560454    0.0900
     43 H43        -1.6270    1.4407   48.0803 H       1  ZINC001067560454    0.0800
     44 H44        -0.3989    1.4509   49.3698 H       1  ZINC001067560454    0.0800
     45 H45        -2.8901    3.2121   49.2593 H       1  ZINC001067560454    0.0700
     46 H46        -2.6618    1.7957   50.3126 H       1  ZINC001067560454    0.0800
     47 H47        -0.9500    2.3082   55.8257 H       1  ZINC001067560454    0.2300
     48 H48        -2.9237    4.6390   57.0370 H       1  ZINC001067560454    0.0800
     49 H49        -4.3942    3.8383   56.4332 H       1  ZINC001067560454    0.0900
     50 H50        -3.1226    2.8807   57.2296 H       1  ZINC001067560454    0.0900
     51 H51        -5.1225    5.6295   52.0909 H       1  ZINC001067560454    0.2100
@<TRIPOS>BOND
     1     1     2    1
     2     1    28    1
     3     1    29    1
     4     1    30    1
     5     2     3    1
     6     2    17    1
     7     2     4    1
     8     4     5    1
     9     4    31    1
    10     4    32    1
    11     5     6    1
    12     5     7    1
    13     5    15    1
    14     7     8   am
    15     7    33    1
    16     8     9    2
    17     8    10    1
    18    10    14    1
    19    10    11    1
    20    10    12    1
    21    11    34    1
    22    11    35    1
    23    11    36    1
    24    12    13    1
    25    12    37    1
    26    12    38    1
    27    13    14    1
    28    13    39    1
    29    13    40    1
    30    14    41    1
    31    14    42    1
    32    15    16    1
    33    15    43    1
    34    15    44    1
    35    16    17    1
    36    16    45    1
    37    16    46    1
    38    17    18    1
    39    18    27   ar
    40    18    19   ar
    41    19    24   ar
    42    19    20    1
    43    20    21    2
    44    21    22    1
    45    21    47    1
    46    22    23    1
    47    22    24    1
    48    23    48    1
    49    23    49    1
    50    23    50    1
    51    24    25   ar
    52    25    26   ar
    53    26    27   ar
    54    26    51    1
@<TRIPOS>SUBSTRUCTURE
     1 ZINC001067560454        1 TEMP              0 ****  ****    0 ROOT


##########                                Name:    ZINC000888733009
##########                DOCK_Rotatable_Bonds:                   6
##########                         Heavy_Atoms:                  25
##########                    Molecular_Weight:             360.434
##########                DOCK_Rotatable_Bonds:                   6
##########                       Formal_Charge:        -1.02073e-06
##########                     HBond_Acceptors:                   7
##########                        HBond_Donors:                   2
##########                         Heavy_Atoms:                  25
##########                          Grid_Score:          -26.062542
##########                     Grid_vdw_energy:          -25.448990
##########                      Grid_es_energy:           -0.613552
##########           Internal_energy_repulsive:           21.666605

@<TRIPOS>MOLECULE
ZINC000888733009
 45 48 1 0 0
SMALL
USER_CHARGES


@<TRIPOS>ATOM
      1 C1          0.9191    0.9588   44.9222 C.3     1  ZINC000888733009   -0.1500
      2 C2          0.3849    0.8328   46.3504 C.3     1  ZINC000888733009    0.0700
      3 H3          0.0745   -0.1929   46.5493 H       1  ZINC000888733009    0.0700
      4 C4         -0.7984    1.8056   46.5704 C.3     1  ZINC000888733009   -0.1300
      5 C5         -0.6023    2.2934   48.0121 C.3     1  ZINC000888733009   -0.1100
      6 C6         -0.6397    3.8062   48.2132 C.3     1  ZINC000888733009   -0.1300
      7 C7         -1.3669    3.5232   49.5406 C.3     1  ZINC000888733009    0.1200
      8 N8         -2.4683    4.4495   49.8145 N.am    1  ZINC000888733009   -0.7100
      9 C9         -3.0638    4.4498   51.0236 C.2     1  ZINC000888733009    0.5900
     10 O10        -2.6855    3.6815   51.8885 O.2     1  ZINC000888733009   -0.5600
     11 C11        -4.1670    5.3756   51.2971 C.2     1  ZINC000888733009   -0.2400
     12 C12        -5.0342    5.2328   52.3497 C.2     1  ZINC000888733009    0.0800
     13 N13        -4.9813    4.2084   53.2805 N.am    1  ZINC000888733009   -0.6100
     14 C14        -5.8542    4.1851   54.3072 C.2     1  ZINC000888733009    0.6000
     15 O15        -6.6898    5.0633   54.4156 O.2     1  ZINC000888733009   -0.4900
     16 C16        -5.7971    3.1019   55.2933 C.2     1  ZINC000888733009   -0.0900
     17 C17        -6.7574    2.8078   56.2189 C.2     1  ZINC000888733009   -0.1000
     18 C18        -6.2899    1.7035   56.9483 C.2     1  ZINC000888733009   -0.2300
     19 C19        -5.0802    1.3761   56.4426 C.2     1  ZINC000888733009    0.0100
     20 O20        -4.7893    2.2173   55.4419 O.3     1  ZINC000888733009   -0.1600
     21 S21        -6.1858    6.4894   52.3557 S.3     1  ZINC000888733009    0.3000
     22 C22        -5.5004    7.2295   50.9200 C.2     1  ZINC000888733009   -0.2800
     23 C23        -4.4535    6.5406   50.4890 C.2     1  ZINC000888733009   -0.0900
     24 C24        -1.8236    2.1891   48.9219 C.3     1  ZINC000888733009   -0.1400
     25 C25         0.6645    1.5839   48.5084 C.3     1  ZINC000888733009    0.0700
     26 O26         1.3906    1.2474   47.3018 O.3     1  ZINC000888733009   -0.3700
     27 H27         1.7681    0.2878   44.7914 H       1  ZINC000888733009    0.0600
     28 H28         0.1332    0.6925   44.2156 H       1  ZINC000888733009    0.0700
     29 H29         1.2367    1.9859   44.7424 H       1  ZINC000888733009    0.0600
     30 H30        -0.7429    2.6409   45.8722 H       1  ZINC000888733009    0.0800
     31 H31        -1.7490    1.2821   46.4687 H       1  ZINC000888733009    0.0800
     32 H32         0.3453    4.2552   48.3410 H       1  ZINC000888733009    0.0800
     33 H33        -1.2538    4.3299   47.4807 H       1  ZINC000888733009    0.0900
     34 H34        -0.6939    3.4037   50.3896 H       1  ZINC000888733009    0.1200
     35 H35        -2.7690    5.0627   49.1257 H       1  ZINC000888733009    0.4000
     36 H36        -4.3161    3.5079   53.1934 H       1  ZINC000888733009    0.4400
     37 H37        -7.6947    3.3248   56.3620 H       1  ZINC000888733009    0.1700
     38 H38        -6.8007    1.2087   57.7611 H       1  ZINC000888733009    0.1600
     39 H39        -4.4533    0.5665   56.7860 H       1  ZINC000888733009    0.2200
     40 H40        -5.8779    8.1273   50.4534 H       1  ZINC000888733009    0.1700
     41 H41        -3.8777    6.8164   49.6179 H       1  ZINC000888733009    0.1500
     42 H42        -2.7726    2.2555   48.3897 H       1  ZINC000888733009    0.0900
     43 H43        -1.7827    1.3486   49.6147 H       1  ZINC000888733009    0.0800
     44 H44         1.2549    2.2532   49.1341 H       1  ZINC000888733009    0.0900
     45 H45         0.4034    0.6795   49.0579 H       1  ZINC000888733009    0.0700
@<TRIPOS>BOND
     1     1     2    1
     2     1    27    1
     3     1    28    1
     4     1    29    1
     5     2     3    1
     6     2    26    1
     7     2     4    1
     8     4     5    1
     9     4    30    1
    10     4    31    1
    11     5    24    1
    12     5     6    1
    13     5    25    1
    14     6     7    1
    15     6    32    1
    16     6    33    1
    17     7     8    1
    18     7    24    1
    19     7    34    1
    20     8     9   am
    21     8    35    1
    22     9    10    2
    23     9    11    1
    24    11    23    1
    25    11    12    2
    26    12    13    1
    27    12    21    1
    28    13    14   am
    29    13    36    1
    30    14    15    2
    31    14    16    1
    32    16    20    1
    33    16    17    2
    34    17    18    1
    35    17    37    1
    36    18    19    2
    37    18    38    1
    38    19    20    1
    39    19    39    1
    40    21    22    1
    41    22    23    2
    42    22    40    1
    43    23    41    1
    44    24    42    1
    45    24    43    1
    46    25    26    1
    47    25    44    1
    48    25    45    1
@<TRIPOS>SUBSTRUCTURE
     1 ZINC000888733009        1 TEMP              0 ****  ****    0 ROOT


##########                                Name:    ZINC000588570917
##########                DOCK_Rotatable_Bonds:                   7
##########                         Heavy_Atoms:                  25
##########                    Molecular_Weight:             366.481
##########                DOCK_Rotatable_Bonds:                   7
##########                       Formal_Charge:          -0.0100006
##########                     HBond_Acceptors:                   7
##########                        HBond_Donors:                   1
##########                         Heavy_Atoms:                  25
##########                          Grid_Score:          -26.052870
##########                     Grid_vdw_energy:          -26.069168
##########                      Grid_es_energy:            0.016297
##########           Internal_energy_repulsive:           40.875294

@<TRIPOS>MOLECULE
ZINC000588570917
 51 52 1 0 0
SMALL
USER_CHARGES


@<TRIPOS>ATOM
      1 C1        -17.5081   -0.0254   57.4163 C.3     1  ZINC000588570917   -0.1300
      2 C2        -18.1729   -1.2880   57.9007 C.2     1  ZINC000588570917   -0.0500
      3 C3        -17.5159   -2.1190   58.7053 C.2     1  ZINC000588570917   -0.2000
      4 C4        -18.1812   -3.3808   59.1912 C.3     1  ZINC000588570917   -0.0900
      5 C5        -19.1832   -3.8658   58.1416 C.3     1  ZINC000588570917   -0.1500
      6 C6        -16.1402   -1.8063   59.1206 C.2     1  ZINC000588570917    0.5600
      7 O7        -15.6843   -0.6955   58.9273 O.2     1  ZINC000588570917   -0.5100
      8 N8        -15.3847   -2.7507   59.7154 N.am    1  ZINC000588570917   -0.6800
      9 C9        -14.0767   -2.4535   60.1104 C.ar    1  ZINC000588570917    0.2100
     10 C10       -13.8286   -1.9683   61.3879 C.ar    1  ZINC000588570917   -0.1700
     11 C11       -12.5354   -1.6763   61.7749 C.ar    1  ZINC000588570917    0.0000
     12 C12       -11.4882   -1.8664   60.8921 C.ar    1  ZINC000588570917   -0.7000
     13 S13        -9.8398   -1.4926   61.3900 S.o2    1  ZINC000588570917    2.6900
     14 O14        -9.8212   -1.5726   62.8086 O.2     1  ZINC000588570917   -0.9500
     15 O15        -8.9846   -2.2629   60.5568 O.2     1  ZINC000588570917   -0.9500
     16 N16        -9.5601    0.0942   61.0074 N.am    1  ZINC000588570917   -1.0000
     17 C17        -8.4857    0.4705   60.0750 C.3     1  ZINC000588570917    0.0900
     18 C18        -9.0738    1.4043   59.0111 C.3     1  ZINC000588570917    0.0700
     19 H19        -9.7730    0.8492   58.3857 H       1  ZINC000588570917    0.0700
     20 C20        -7.9455    1.9646   58.1428 C.3     1  ZINC000588570917   -0.1500
     21 O21        -9.7602    2.4797   59.6562 O.3     1  ZINC000588570917   -0.3700
     22 C22       -10.8749    2.0691   60.4515 C.3     1  ZINC000588570917    0.0800
     23 H23       -11.3667    2.9473   60.8699 H       1  ZINC000588570917    0.1200
     24 C24       -11.8662    1.2944   59.5809 C.3     1  ZINC000588570917   -0.1900
     25 C25       -10.3826    1.1690   61.5849 C.3     1  ZINC000588570917    0.0900
     26 C26       -11.7317   -2.3498   59.6196 C.ar    1  ZINC000588570917    0.0000
     27 C27       -13.0219   -2.6484   59.2279 C.ar    1  ZINC000588570917   -0.1400
     28 H28       -18.1956    0.5232   56.7725 H       1  ZINC000588570917    0.0600
     29 H29       -17.2384    0.5944   58.2715 H       1  ZINC000588570917    0.0800
     30 H30       -16.6094   -0.2803   56.8545 H       1  ZINC000588570917    0.0800
     31 H31       -19.1826   -1.5184   57.5946 H       1  ZINC000588570917    0.1300
     32 H32       -17.4263   -4.1497   59.3553 H       1  ZINC000588570917    0.0700
     33 H33       -18.7037   -3.1791   60.1263 H       1  ZINC000588570917    0.0800
     34 H34       -18.6608   -4.0675   57.2065 H       1  ZINC000588570917    0.0500
     35 H35       -19.6645   -4.7784   58.4930 H       1  ZINC000588570917    0.0600
     36 H36       -19.9382   -3.0969   57.9774 H       1  ZINC000588570917    0.0600
     37 H37       -15.7484   -3.6366   59.8696 H       1  ZINC000588570917    0.4100
     38 H38       -14.6461   -1.8192   62.0778 H       1  ZINC000588570917    0.1400
     39 H39       -12.3419   -1.2987   62.7681 H       1  ZINC000588570917    0.1400
     40 H40        -7.6926    0.9853   60.6173 H       1  ZINC000588570917    0.0900
     41 H41        -8.0841   -0.4233   59.5975 H       1  ZINC000588570917    0.1000
     42 H42        -7.4206    1.1434   57.6547 H       1  ZINC000588570917    0.0700
     43 H43        -8.3644    2.6284   57.3865 H       1  ZINC000588570917    0.0700
     44 H44        -7.2476    2.5211   58.7684 H       1  ZINC000588570917    0.0700
     45 H45       -11.3741    0.4154   59.1643 H       1  ZINC000588570917    0.0600
     46 H46       -12.7157    0.9817   60.1880 H       1  ZINC000588570917    0.0700
     47 H47       -12.2148    1.9340   58.7701 H       1  ZINC000588570917    0.0700
     48 H48       -11.2360    0.7389   62.1091 H       1  ZINC000588570917    0.1000
     49 H49        -9.7793    1.7518   62.2810 H       1  ZINC000588570917    0.0900
     50 H50       -10.9116   -2.4972   58.9325 H       1  ZINC000588570917    0.1400
     51 H51       -13.2114   -3.0262   58.2340 H       1  ZINC000588570917    0.1500
@<TRIPOS>BOND
     1     1     2    1
     2     1    28    1
     3     1    29    1
     4     1    30    1
     5     2     3    2
     6     2    31    1
     7     3     4    1
     8     3     6    1
     9     4     5    1
    10     4    32    1
    11     4    33    1
    12     5    34    1
    13     5    35    1
    14     5    36    1
    15     6     7    2
    16     6     8   am
    17     8     9    1
    18     8    37    1
    19     9    27   ar
    20     9    10   ar
    21    10    11   ar
    22    10    38    1
    23    11    12   ar
    24    11    39    1
    25    12    13    1
    26    12    26   ar
    27    13    14    2
    28    13    15    2
    29    13    16   am
    30    16    25    1
    31    16    17    1
    32    17    18    1
    33    17    40    1
    34    17    41    1
    35    18    19    1
    36    18    20    1
    37    18    21    1
    38    20    42    1
    39    20    43    1
    40    20    44    1
    41    21    22    1
    42    22    23    1
    43    22    24    1
    44    22    25    1
    45    24    45    1
    46    24    46    1
    47    24    47    1
    48    25    48    1
    49    25    49    1
    50    26    27   ar
    51    26    50    1
    52    27    51    1
@<TRIPOS>SUBSTRUCTURE
     1 ZINC000588570917        1 TEMP              0 ****  ****    0 ROOT


##########                                Name:    ZINC001013196242
##########                DOCK_Rotatable_Bonds:                   5
##########                         Heavy_Atoms:                  24
##########                    Molecular_Weight:              349.86
##########                DOCK_Rotatable_Bonds:                   5
##########                       Formal_Charge:        -3.05474e-07
##########                     HBond_Acceptors:                   6
##########                        HBond_Donors:                   1
##########                         Heavy_Atoms:                  24
##########                          Grid_Score:          -26.038557
##########                     Grid_vdw_energy:          -25.629093
##########                      Grid_es_energy:           -0.409463
##########           Internal_energy_repulsive:           10.386045

@<TRIPOS>MOLECULE
ZINC001013196242
 48 51 1 0 0
SMALL
USER_CHARGES


@<TRIPOS>ATOM
      1 C1        -14.0746    0.0828   57.5030 C.3     1  ZINC001013196242   -0.1600
      2 C2        -12.9936   -0.9998   57.5232 C.3     1  ZINC001013196242    0.1400
      3 H3        -13.4417   -1.9744   57.3300 H       1  ZINC001013196242    0.0800
      4 C4        -12.2865   -1.0099   58.8949 C.3     1  ZINC001013196242   -0.1400
      5 C5        -10.8053   -1.2801   58.5202 C.3     1  ZINC001013196242    0.1300
      6 H6        -10.6272   -2.3456   58.3747 H       1  ZINC001013196242    0.1100
      7 N7         -9.8992   -0.7326   59.5328 N.am    1  ZINC001013196242   -0.7200
      8 C8         -9.7066   -1.3924   60.6922 C.2     1  ZINC001013196242    0.5400
      9 O9        -10.2822   -2.4402   60.8964 O.2     1  ZINC001013196242   -0.5200
     10 C10        -8.7759   -0.8282   61.7345 C.3     1  ZINC001013196242   -0.1400
     11 C11        -8.8621    0.7020   61.8735 C.3     1  ZINC001013196242   -0.0800
     12 C12        -9.9567    0.4616   62.9188 C.3     1  ZINC001013196242   -0.1600
     13 C13       -10.5330    1.4415   63.9348 C.3     1  ZINC001013196242   -0.1700
     14 C14       -11.4329    0.8372   62.8534 C.3     1  ZINC001013196242   -0.1400
     15 C15        -9.3309   -0.9151   63.1672 C.3     1  ZINC001013196242   -0.0800
     16 C16       -10.6768   -0.5081   57.1833 C.3     1  ZINC001013196242    0.0800
     17 N17       -11.9742   -0.7075   56.5050 N.am    1  ZINC001013196242   -0.6000
     18 C18       -12.1855   -0.6316   55.1762 C.2     1  ZINC001013196242    0.6100
     19 O19       -13.3017   -0.8130   54.7262 O.2     1  ZINC001013196242   -0.5400
     20 C20       -11.0705   -0.3305   54.2722 C.2     1  ZINC001013196242   -0.0400
     21 C21       -10.3616    0.8510   54.2182 C.2     1  ZINC001013196242   -0.1400
     22 C22        -9.3931    0.7042   53.2196 C.2     1  ZINC001013196242   -0.1200
     23 Cl23       -8.2291    1.8998   52.7407 Cl      1  ZINC001013196242   -0.0400
     24 C24        -9.5245   -0.5374   52.6926 C.2     1  ZINC001013196242    0.0400
     25 N25       -10.5375   -1.1779   53.3276 N.pl3   1  ZINC001013196242   -0.4000
     26 C26       -10.9938   -2.5419   53.0489 C.3     1  ZINC001013196242    0.0700
     27 H27       -14.5657    0.0878   56.5299 H       1  ZINC001013196242    0.0700
     28 H28       -14.8104   -0.1238   58.2803 H       1  ZINC001013196242    0.0700
     29 H29       -13.6178    1.0558   57.6845 H       1  ZINC001013196242    0.0600
     30 H30       -12.3892   -0.0437   59.3888 H       1  ZINC001013196242    0.0900
     31 H31       -12.6771   -1.8094   59.5243 H       1  ZINC001013196242    0.0900
     32 H32        -9.4379    0.1049   59.3689 H       1  ZINC001013196242    0.4000
     33 H33        -7.7565   -1.2020   61.6382 H       1  ZINC001013196242    0.1000
     34 H34        -7.9591    1.1554   62.2825 H       1  ZINC001013196242    0.1000
     35 H35        -9.2191    1.2032   60.9739 H       1  ZINC001013196242    0.0700
     36 H36       -10.6663    1.0869   64.9568 H       1  ZINC001013196242    0.1000
     37 H37       -10.2590    2.4915   63.8330 H       1  ZINC001013196242    0.0900
     38 H38       -11.7508    1.4898   62.0403 H       1  ZINC001013196242    0.0900
     39 H39       -12.1581    0.0850   63.1642 H       1  ZINC001013196242    0.1000
     40 H40       -10.0637   -1.7101   63.3048 H       1  ZINC001013196242    0.0800
     41 H41        -8.5583   -0.9118   63.9362 H       1  ZINC001013196242    0.0900
     42 H42       -10.5050    0.5515   57.3722 H       1  ZINC001013196242    0.0800
     43 H43        -9.8681   -0.9233   56.5818 H       1  ZINC001013196242    0.1000
     44 H44       -10.5239    1.7253   54.8311 H       1  ZINC001013196242    0.1600
     45 H45        -8.9192   -0.9507   51.8994 H       1  ZINC001013196242    0.1800
     46 H46       -10.5152   -3.2339   53.7419 H       1  ZINC001013196242    0.0800
     47 H47       -12.0755   -2.5953   53.1713 H       1  ZINC001013196242    0.1000
     48 H48       -10.7300   -2.8114   52.0262 H       1  ZINC001013196242    0.0900
@<TRIPOS>BOND
     1     1     2    1
     2     1    27    1
     3     1    28    1
     4     1    29    1
     5     2     3    1
     6     2    17    1
     7     2     4    1
     8     4     5    1
     9     4    30    1
    10     4    31    1
    11     5     6    1
    12     5     7    1
    13     5    16    1
    14     7     8   am
    15     7    32    1
    16     8     9    2
    17     8    10    1
    18    10    15    1
    19    10    11    1
    20    10    33    1
    21    11    12    1
    22    11    34    1
    23    11    35    1
    24    12    14    1
    25    12    13    1
    26    12    15    1
    27    13    14    1
    28    13    36    1
    29    13    37    1
    30    14    38    1
    31    14    39    1
    32    15    40    1
    33    15    41    1
    34    16    17    1
    35    16    42    1
    36    16    43    1
    37    17    18   am
    38    18    19    2
    39    18    20    1
    40    20    25    1
    41    20    21    2
    42    21    22    1
    43    21    44    1
    44    22    23    1
    45    22    24    2
    46    24    25    1
    47    24    45    1
    48    25    26    1
    49    26    46    1
    50    26    47    1
    51    26    48    1
@<TRIPOS>SUBSTRUCTURE
     1 ZINC001013196242        1 TEMP              0 ****  ****    0 ROOT


##########                                Name:    ZINC000656860804
##########                DOCK_Rotatable_Bonds:                   2
##########                         Heavy_Atoms:                  19
##########                    Molecular_Weight:             388.068
##########                DOCK_Rotatable_Bonds:                   2
##########                       Formal_Charge:          8.9407e-08
##########                     HBond_Acceptors:                   8
##########                        HBond_Donors:                   1
##########                         Heavy_Atoms:                  19
##########                          Grid_Score:          -26.027393
##########                     Grid_vdw_energy:          -26.781977
##########                      Grid_es_energy:            0.754584
##########           Internal_energy_repulsive:           12.991531

@<TRIPOS>MOLECULE
ZINC000656860804
 28 29 1 0 0
SMALL
USER_CHARGES


@<TRIPOS>ATOM
      1 O1         -1.9043   -2.5667   48.1988 O.2     1  ZINC000656860804   -0.5400
      2 C2         -1.9578   -1.5521   47.5366 C.2     1  ZINC000656860804    0.5100
      3 C3         -1.6720   -0.2385   48.2119 C.3     1  ZINC000656860804    0.1100
      4 N4         -1.4923    0.7966   47.1831 N.am    1  ZINC000656860804   -1.0000
      5 S5         -0.2813    1.9207   47.2942 S.o2    1  ZINC000656860804    2.6900
      6 O6          0.9274    1.1931   47.4635 O.2     1  ZINC000656860804   -0.9200
      7 O7         -0.4913    2.8429   46.2336 O.2     1  ZINC000656860804   -0.9300
      8 C8         -0.5367    2.8163   48.7899 C.ar    1  ZINC000656860804   -0.6500
      9 C9         -1.7455    2.7231   49.4530 C.ar    1  ZINC000656860804    0.0100
     10 C10        -1.9465    3.4261   50.6275 C.ar    1  ZINC000656860804   -0.0400
     11 Cl11       -3.4650    3.3086   51.4607 Cl      1  ZINC000656860804   -0.0200
     12 C12        -0.9362    4.2230   51.1384 C.ar    1  ZINC000656860804    0.0200
     13 Cl13       -1.1873    5.1050   52.6125 Cl      1  ZINC000656860804   -0.0100
     14 C14         0.2736    4.3157   50.4741 C.ar    1  ZINC000656860804   -0.0900
     15 C15         0.4753    3.6080   49.3032 C.ar    1  ZINC000656860804    0.0100
     16 Br16        2.1290    3.7347   48.3950 Br      1  ZINC000656860804    0.0100
     17 C17        -2.4325    0.7927   46.0497 C.3     1  ZINC000656860804    0.0900
     18 C18        -2.2800   -0.5362   45.3071 C.3     1  ZINC000656860804    0.0800
     19 N19        -2.2619   -1.6527   46.2418 N.am    1  ZINC000656860804   -0.7100
     20 H20        -2.5085    0.0296   48.8574 H       1  ZINC000656860804    0.1200
     21 H21        -0.7626   -0.3240   48.8066 H       1  ZINC000656860804    0.1200
     22 H22        -2.5337    2.1017   49.0540 H       1  ZINC000656860804    0.1700
     23 H23         1.0619    4.9375   50.8720 H       1  ZINC000656860804    0.1700
     24 H24        -3.4534    0.8929   46.4183 H       1  ZINC000656860804    0.1000
     25 H25        -2.2012    1.6186   45.3770 H       1  ZINC000656860804    0.1200
     26 H26        -3.1131   -0.6581   44.6150 H       1  ZINC000656860804    0.1000
     27 H27        -1.3459   -0.5280   44.7453 H       1  ZINC000656860804    0.0800
     28 H28        -2.4933   -2.5306   45.9002 H       1  ZINC000656860804    0.4000
@<TRIPOS>BOND
     1     1     2    2
     2     2    19   am
     3     2     3    1
     4     3     4    1
     5     3    20    1
     6     3    21    1
     7     4     5   am
     8     4    17    1
     9     5     6    2
    10     5     7    2
    11     5     8    1
    12     8    15   ar
    13     8     9   ar
    14     9    10   ar
    15     9    22    1
    16    10    11    1
    17    10    12   ar
    18    12    13    1
    19    12    14   ar
    20    14    15   ar
    21    14    23    1
    22    15    16    1
    23    17    18    1
    24    17    24    1
    25    17    25    1
    26    18    19    1
    27    18    26    1
    28    18    27    1
    29    19    28    1
@<TRIPOS>SUBSTRUCTURE
     1 ZINC000656860804        1 TEMP              0 ****  ****    0 ROOT


##########                                Name:    ZINC000187810810
##########                DOCK_Rotatable_Bonds:                   7
##########                         Heavy_Atoms:                  27
##########                    Molecular_Weight:             386.414
##########                DOCK_Rotatable_Bonds:                   7
##########                       Formal_Charge:           0.0599998
##########                     HBond_Acceptors:                   8
##########                        HBond_Donors:                   1
##########                         Heavy_Atoms:                  27
##########                          Grid_Score:          -25.940058
##########                     Grid_vdw_energy:          -25.197315
##########                      Grid_es_energy:           -0.742743
##########           Internal_energy_repulsive:           43.062004

@<TRIPOS>MOLECULE
ZINC000187810810
 52 53 1 0 0
SMALL
USER_CHARGES


@<TRIPOS>ATOM
      1 C1        -10.8951    0.4852   52.1136 C.3     1  ZINC000187810810   -0.1800
      2 C2        -11.1932   -0.9294   52.6147 C.3     1  ZINC000187810810    0.1400
      3 C3        -12.6904   -1.0649   52.8986 C.3     1  ZINC000187810810   -0.1800
      4 C4        -10.7824   -1.9455   51.5472 C.3     1  ZINC000187810810   -0.1400
      5 O5        -10.4449   -1.1787   53.8338 O.3     1  ZINC000187810810   -0.3600
      6 C6        -10.9051   -2.1489   54.6459 C.2     1  ZINC000187810810    0.6500
      7 O7        -10.9855   -3.2920   54.2418 O.2     1  ZINC000187810810   -0.5600
      8 N8        -11.2766   -1.8522   55.9070 N.am    1  ZINC000187810810   -0.6000
      9 C9        -11.7733   -2.9016   56.8075 C.3     1  ZINC000187810810    0.1100
     10 C10       -13.1329   -2.4695   57.3656 C.3     1  ZINC000187810810   -0.1400
     11 C11       -12.9971   -1.0925   58.0196 C.3     1  ZINC000187810810    0.1800
     12 C12       -14.3454   -0.6727   58.6085 C.3     1  ZINC000187810810   -0.1600
     13 N13       -11.9964   -1.1560   59.0876 N.am    1  ZINC000187810810   -0.7100
     14 C14       -11.7228   -0.0586   59.8207 C.2     1  ZINC000187810810    0.5500
     15 O15       -12.3051    0.9841   59.5948 O.2     1  ZINC000187810810   -0.5100
     16 C16       -10.7141   -0.1232   60.8998 C.ar    1  ZINC000187810810   -0.0900
     17 C17        -9.3994   -0.4904   60.6092 C.ar    1  ZINC000187810810   -0.0900
     18 C18        -8.4629   -0.5482   61.6209 C.ar    1  ZINC000187810810   -0.0900
     19 C19        -8.8248   -0.2436   62.9209 C.ar    1  ZINC000187810810   -0.0900
     20 C20       -10.1268    0.1207   63.2158 C.ar    1  ZINC000187810810   -0.0800
     21 C21       -11.0713    0.1885   62.2129 C.ar    1  ZINC000187810810   -0.1300
     22 C22       -12.4887    0.5858   62.5357 C.3     1  ZINC000187810810    0.5200
     23 F23       -12.7543    1.8476   61.9929 F       1  ZINC000187810810   -0.1800
     24 F24       -13.3718   -0.3519   61.9899 F       1  ZINC000187810810   -0.1600
     25 F25       -12.6557    0.6309   63.9240 F       1  ZINC000187810810   -0.1600
     26 C26       -12.5582   -0.0686   56.9702 C.3     1  ZINC000187810810   -0.1500
     27 C27       -11.1867   -0.4745   56.4094 C.3     1  ZINC000187810810    0.1300
     28 H28       -11.1877    1.2092   52.8741 H       1  ZINC000187810810    0.0900
     29 H29        -9.8284    0.5818   51.9114 H       1  ZINC000187810810    0.0600
     30 H30       -11.4568    0.6724   51.1984 H       1  ZINC000187810810    0.0700
     31 H31       -13.2522   -0.8778   51.9834 H       1  ZINC000187810810    0.0700
     32 H32       -12.9028   -2.0727   53.2554 H       1  ZINC000187810810    0.0600
     33 H33       -12.9831   -0.3409   53.6591 H       1  ZINC000187810810    0.0900
     34 H34        -9.7157   -1.8490   51.3450 H       1  ZINC000187810810    0.0700
     35 H35       -10.9947   -2.9533   51.9042 H       1  ZINC000187810810    0.0700
     36 H36       -11.3441   -1.7584   50.6321 H       1  ZINC000187810810    0.0800
     37 H37       -11.8848   -3.8346   56.2550 H       1  ZINC000187810810    0.1000
     38 H38       -11.0695   -3.0423   57.6279 H       1  ZINC000187810810    0.0700
     39 H39       -13.8591   -2.4170   56.5544 H       1  ZINC000187810810    0.0900
     40 H40       -13.4680   -3.1934   58.1082 H       1  ZINC000187810810    0.0900
     41 H41       -14.6576   -1.4013   59.3568 H       1  ZINC000187810810    0.0600
     42 H42       -14.2489    0.3080   59.0744 H       1  ZINC000187810810    0.0800
     43 H43       -15.0902   -0.6259   57.8141 H       1  ZINC000187810810    0.0700
     44 H44       -11.5308   -1.9878   59.2672 H       1  ZINC000187810810    0.4000
     45 H45        -9.1158   -0.7290   59.5948 H       1  ZINC000187810810    0.1400
     46 H46        -7.4452   -0.8322   61.3973 H       1  ZINC000187810810    0.1400
     47 H47        -8.0881   -0.2908   63.7091 H       1  ZINC000187810810    0.1400
     48 H48       -10.4030    0.3569   64.2329 H       1  ZINC000187810810    0.1500
     49 H49       -13.2898   -0.0387   56.1627 H       1  ZINC000187810810    0.0800
     50 H50       -12.4843    0.9163   57.4315 H       1  ZINC000187810810    0.1000
     51 H51       -10.4373   -0.4158   57.1988 H       1  ZINC000187810810    0.0700
     52 H52       -10.9135    0.1939   55.5928 H       1  ZINC000187810810    0.1000
@<TRIPOS>BOND
     1     1     2    1
     2     1    28    1
     3     1    29    1
     4     1    30    1
     5     2     3    1
     6     2     4    1
     7     2     5    1
     8     3    31    1
     9     3    32    1
    10     3    33    1
    11     4    34    1
    12     4    35    1
    13     4    36    1
    14     5     6    1
    15     6     7    2
    16     6     8   am
    17     8    27    1
    18     8     9    1
    19     9    10    1
    20     9    37    1
    21     9    38    1
    22    10    11    1
    23    10    39    1
    24    10    40    1
    25    11    12    1
    26    11    13    1
    27    11    26    1
    28    12    41    1
    29    12    42    1
    30    12    43    1
    31    13    14   am
    32    13    44    1
    33    14    15    2
    34    14    16    1
    35    16    21   ar
    36    16    17   ar
    37    17    18   ar
    38    17    45    1
    39    18    19   ar
    40    18    46    1
    41    19    20   ar
    42    19    47    1
    43    20    21   ar
    44    20    48    1
    45    21    22    1
    46    22    23    1
    47    22    24    1
    48    22    25    1
    49    26    27    1
    50    26    49    1
    51    26    50    1
    52    27    51    1
    53    27    52    1
@<TRIPOS>SUBSTRUCTURE
     1 ZINC000187810810        1 TEMP              0 ****  ****    0 ROOT


##########                                Name:    ZINC000616491533
##########                DOCK_Rotatable_Bonds:                   4
##########                         Heavy_Atoms:                  27
##########                    Molecular_Weight:             375.418
##########                DOCK_Rotatable_Bonds:                   4
##########                       Formal_Charge:           0.0299996
##########                     HBond_Acceptors:                   7
##########                        HBond_Donors:                   0
##########                         Heavy_Atoms:                  27
##########                          Grid_Score:          -25.852856
##########                     Grid_vdw_energy:          -25.265985
##########                      Grid_es_energy:           -0.586871
##########           Internal_energy_repulsive:           12.331371

@<TRIPOS>MOLECULE
ZINC000616491533
 50 53 1 0 0
SMALL
USER_CHARGES


@<TRIPOS>ATOM
      1 C1        -15.1666    0.5808   54.0436 C.3     1  ZINC000616491533   -0.1700
      2 C2        -14.6477   -0.8208   53.7166 C.3     1  ZINC000616491533    0.1400
      3 H3        -15.4862   -1.4932   53.5348 H       1  ZINC000616491533    0.0800
      4 C4        -13.7382   -0.7663   52.4692 C.3     1  ZINC000616491533   -0.1200
      5 C5        -12.3213   -0.7262   53.0786 C.3     1  ZINC000616491533   -0.0700
      6 C6        -12.4711   -1.6073   54.3336 C.3     1  ZINC000616491533    0.0900
      7 N7        -13.8344   -1.3261   54.8331 N.am    1  ZINC000616491533   -0.6100
      8 C8        -14.2578   -1.5013   56.1005 C.2     1  ZINC000616491533    0.6100
      9 O9        -15.4053   -1.2330   56.4008 O.2     1  ZINC000616491533   -0.5200
     10 C10       -13.3300   -2.0182   57.1228 C.2     1  ZINC000616491533   -0.2400
     11 C11       -12.4836   -1.2687   57.9152 C.2     1  ZINC000616491533    0.0700
     12 C12       -12.3367    0.2309   57.8949 C.3     1  ZINC000616491533    0.3400
     13 F13       -13.5036    0.8068   57.3810 F       1  ZINC000616491533   -0.1900
     14 F14       -12.1214    0.6960   59.1966 F       1  ZINC000616491533   -0.1600
     15 N15       -11.8143   -2.1241   58.7094 N.pl3   1  ZINC000616491533   -0.2900
     16 C16       -10.8532   -1.7718   59.6668 C.ar    1  ZINC000616491533    0.1300
     17 C17        -9.6365   -1.2356   59.2666 C.ar    1  ZINC000616491533   -0.1000
     18 C18        -8.6915   -0.8895   60.2124 C.ar    1  ZINC000616491533   -0.1000
     19 C19        -8.9558   -1.0769   61.5567 C.ar    1  ZINC000616491533   -0.1000
     20 C20       -10.1664   -1.6107   61.9584 C.ar    1  ZINC000616491533   -0.1000
     21 C21       -11.1180   -1.9530   61.0177 C.ar    1  ZINC000616491533   -0.0900
     22 N22       -12.2399   -3.4248   58.4177 N.2     1  ZINC000616491533   -0.2600
     23 C23       -13.1451   -3.3732   57.4794 C.2     1  ZINC000616491533    0.0700
     24 C24       -11.3059   -1.3263   52.1170 C.3     1  ZINC000616491533   -0.1400
     25 C25        -9.9063   -1.2286   52.7341 C.3     1  ZINC000616491533    0.0600
     26 O26        -9.6263    0.1356   53.0554 O.3     1  ZINC000616491533   -0.3800
     27 C27       -10.5139    0.7063   54.0192 C.3     1  ZINC000616491533    0.0600
     28 C28       -11.9415    0.6969   53.4611 C.3     1  ZINC000616491533   -0.1500
     29 H29       -14.3237    1.2445   54.2364 H       1  ZINC000616491533    0.0600
     30 H30       -15.7429    0.9609   53.2001 H       1  ZINC000616491533    0.0600
     31 H31       -15.8030    0.5355   54.9274 H       1  ZINC000616491533    0.0800
     32 H32       -13.8696   -1.6581   51.8565 H       1  ZINC000616491533    0.0800
     33 H33       -13.9338    0.1348   51.8880 H       1  ZINC000616491533    0.0900
     34 H34       -12.3741   -2.6608   54.0715 H       1  ZINC000616491533    0.0800
     35 H35       -11.7281   -1.3314   55.0820 H       1  ZINC000616491533    0.0800
     36 H36       -11.4893    0.5045   57.2664 H       1  ZINC000616491533    0.1400
     37 H37        -9.4293   -1.0897   58.2167 H       1  ZINC000616491533    0.1300
     38 H38        -7.7449   -0.4723   59.9017 H       1  ZINC000616491533    0.1400
     39 H39        -8.2148   -0.8061   62.2944 H       1  ZINC000616491533    0.1300
     40 H40       -10.3700   -1.7558   63.0090 H       1  ZINC000616491533    0.1400
     41 H41       -12.0634   -2.3700   61.3320 H       1  ZINC000616491533    0.1300
     42 H42       -13.6587   -4.2188   57.0465 H       1  ZINC000616491533    0.2100
     43 H43       -11.5511   -2.3726   51.9349 H       1  ZINC000616491533    0.0800
     44 H44       -11.3276   -0.7775   51.1754 H       1  ZINC000616491533    0.0800
     45 H45        -9.8656   -1.8318   53.6411 H       1  ZINC000616491533    0.0500
     46 H46        -9.1676   -1.5934   52.0204 H       1  ZINC000616491533    0.1000
     47 H47       -10.4786    0.1209   54.9379 H       1  ZINC000616491533    0.0500
     48 H48       -10.2121    1.7324   54.2291 H       1  ZINC000616491533    0.1000
     49 H49       -11.9919    1.3364   52.5798 H       1  ZINC000616491533    0.0800
     50 H50       -12.6313    1.0664   54.2197 H       1  ZINC000616491533    0.0800
@<TRIPOS>BOND
     1     1     2    1
     2     1    29    1
     3     1    30    1
     4     1    31    1
     5     2     3    1
     6     2     7    1
     7     2     4    1
     8     4     5    1
     9     4    32    1
    10     4    33    1
    11     5    28    1
    12     5     6    1
    13     5    24    1
    14     6     7    1
    15     6    34    1
    16     6    35    1
    17     7     8   am
    18     8     9    2
    19     8    10    1
    20    10    23    1
    21    10    11    2
    22    11    12    1
    23    11    15    1
    24    12    13    1
    25    12    14    1
    26    12    36    1
    27    15    16    1
    28    15    22    1
    29    16    21   ar
    30    16    17   ar
    31    17    18   ar
    32    17    37    1
    33    18    19   ar
    34    18    38    1
    35    19    20   ar
    36    19    39    1
    37    20    21   ar
    38    20    40    1
    39    21    41    1
    40    22    23    2
    41    23    42    1
    42    24    25    1
    43    24    43    1
    44    24    44    1
    45    25    26    1
    46    25    45    1
    47    25    46    1
    48    26    27    1
    49    27    28    1
    50    27    47    1
    51    27    48    1
    52    28    49    1
    53    28    50    1
@<TRIPOS>SUBSTRUCTURE
     1 ZINC000616491533        1 TEMP              0 ****  ****    0 ROOT


##########                                Name:    ZINC000430767928
##########                DOCK_Rotatable_Bonds:                   4
##########                         Heavy_Atoms:                  25
##########                    Molecular_Weight:             358.505
##########                DOCK_Rotatable_Bonds:                   4
##########                       Formal_Charge:          -0.0100002
##########                     HBond_Acceptors:                   5
##########                        HBond_Donors:                   0
##########                         Heavy_Atoms:                  25
##########                          Grid_Score:          -25.841848
##########                     Grid_vdw_energy:          -25.857042
##########                      Grid_es_energy:            0.015194
##########           Internal_energy_repulsive:           18.971743

@<TRIPOS>MOLECULE
ZINC000430767928
 51 55 1 0 0
SMALL
USER_CHARGES


@<TRIPOS>ATOM
      1 O1          1.4872    4.2773   47.9131 O.2     1  ZINC000430767928   -0.4600
      2 C2          0.3886    3.9025   48.2627 C.2     1  ZINC000430767928    0.5300
      3 C3         -0.5544    4.5937   49.2179 C.3     1  ZINC000430767928    0.0400
      4 H4         -1.0001    5.4939   48.7946 H       1  ZINC000430767928    0.1400
      5 C5          0.1086    4.8418   50.5884 C.3     1  ZINC000430767928   -0.1100
      6 C6         -1.0934    4.7398   51.5619 C.3     1  ZINC000430767928   -0.1000
      7 H7         -1.4801    5.7325   51.7923 H       1  ZINC000430767928    0.1000
      8 C8         -0.6780    4.0203   52.8467 C.3     1  ZINC000430767928   -0.0800
      9 C9          0.5181    4.7414   53.4713 C.3     1  ZINC000430767928   -0.1100
     10 C10         0.9334    4.0218   54.7561 C.3     1  ZINC000430767928   -0.1200
     11 C11        -0.2358    4.0246   55.7429 C.3     1  ZINC000430767928   -0.1200
     12 C12        -1.4320    3.3035   55.1184 C.3     1  ZINC000430767928   -0.1200
     13 C13        -1.8473    4.0230   53.8336 C.3     1  ZINC000430767928   -0.1200
     14 C14        -2.1524    3.9142   50.7995 C.3     1  ZINC000430767928    0.1600
     15 N15        -1.5525    3.5272   49.5116 N.am    1  ZINC000430767928   -0.6400
     16 C16        -1.4413    2.6473   48.5113 C.2     1  ZINC000430767928    0.7400
     17 O17        -2.2903    1.8256   48.2262 O.2     1  ZINC000430767928   -0.5100
     18 N18        -0.2562    2.7792   47.8763 N.am    1  ZINC000430767928   -0.5800
     19 C19         0.2684    1.8227   46.8985 C.3     1  ZINC000430767928    0.2600
     20 H20         1.3557    1.8941   46.8676 H       1  ZINC000430767928    0.1200
     21 C21        -0.1321    0.4258   47.2974 C.2     1  ZINC000430767928   -0.2100
     22 C22        -1.2366   -0.2028   46.8921 C.2     1  ZINC000430767928   -0.1200
     23 C23        -1.3944   -1.4846   47.3903 C.2     1  ZINC000430767928   -0.1400
     24 C24        -0.4180   -1.8969   48.2002 C.2     1  ZINC000430767928   -0.2300
     25 S25         0.7889   -0.6279   48.3628 S.3     1  ZINC000430767928    0.1700
     26 C26        -0.3031    2.1419   45.5156 C.3     1  ZINC000430767928   -0.1700
     27 C27         0.5962    2.9006   44.5375 C.3     1  ZINC000430767928   -0.1700
     28 C28         0.3055    1.4150   44.3147 C.3     1  ZINC000430767928   -0.1600
     29 H29         0.8495    4.0725   50.8055 H       1  ZINC000430767928    0.0800
     30 H30         0.5564    5.8349   50.6283 H       1  ZINC000430767928    0.1000
     31 H31        -0.4014    2.9919   52.6141 H       1  ZINC000430767928    0.0700
     32 H32         1.3511    4.7394   52.7682 H       1  ZINC000430767928    0.0600
     33 H33         0.2414    5.7697   53.7039 H       1  ZINC000430767928    0.0700
     34 H34         1.2101    2.9935   54.5234 H       1  ZINC000430767928    0.0600
     35 H35         1.7856    4.5355   55.2010 H       1  ZINC000430767928    0.0600
     36 H36         0.0600    3.5120   56.6582 H       1  ZINC000430767928    0.0600
     37 H37        -0.5125    5.0528   55.9755 H       1  ZINC000430767928    0.0600
     38 H38        -1.1554    2.2751   54.8857 H       1  ZINC000430767928    0.0600
     39 H39        -2.2650    3.3054   55.8213 H       1  ZINC000430767928    0.0600
     40 H40        -2.1240    5.0513   54.0662 H       1  ZINC000430767928    0.0700
     41 H41        -2.6994    3.5092   53.3886 H       1  ZINC000430767928    0.0600
     42 H42        -2.4195    3.0276   51.3746 H       1  ZINC000430767928    0.0900
     43 H43        -3.0385    4.5219   50.6165 H       1  ZINC000430767928    0.0800
     44 H44        -1.9536    0.2539   46.2259 H       1  ZINC000430767928    0.1400
     45 H45        -2.2438   -2.1037   47.1423 H       1  ZINC000430767928    0.1400
     46 H46        -0.3737   -2.8635   48.6800 H       1  ZINC000430767928    0.1600
     47 H47        -1.3717    2.3550   45.4863 H       1  ZINC000430767928    0.1200
     48 H48         0.1194    3.6131   43.8645 H       1  ZINC000430767928    0.1000
     49 H49         1.5949    3.1722   44.8792 H       1  ZINC000430767928    0.1000
     50 H50         1.1131    0.7093   44.5099 H       1  ZINC000430767928    0.1000
     51 H51        -0.3626    1.1503   43.4951 H       1  ZINC000430767928    0.1000
@<TRIPOS>BOND
     1     1     2    2
     2     2    18   am
     3     2     3    1
     4     3     4    1
     5     3    15    1
     6     3     5    1
     7     5     6    1
     8     5    29    1
     9     5    30    1
    10     6     7    1
    11     6     8    1
    12     6    14    1
    13     8    13    1
    14     8     9    1
    15     8    31    1
    16     9    10    1
    17     9    32    1
    18     9    33    1
    19    10    11    1
    20    10    34    1
    21    10    35    1
    22    11    12    1
    23    11    36    1
    24    11    37    1
    25    12    13    1
    26    12    38    1
    27    12    39    1
    28    13    40    1
    29    13    41    1
    30    14    15    1
    31    14    42    1
    32    14    43    1
    33    15    16   am
    34    16    17    2
    35    16    18   am
    36    18    19    1
    37    19    20    1
    38    19    21    1
    39    19    26    1
    40    21    25    1
    41    21    22    2
    42    22    23    1
    43    22    44    1
    44    23    24    2
    45    23    45    1
    46    24    25    1
    47    24    46    1
    48    26    28    1
    49    26    27    1
    50    26    47    1
    51    27    28    1
    52    27    48    1
    53    27    49    1
    54    28    50    1
    55    28    51    1
@<TRIPOS>SUBSTRUCTURE
     1 ZINC000430767928        1 TEMP              0 ****  ****    0 ROOT


##########                                Name:    ZINC001173835973
##########                DOCK_Rotatable_Bonds:                   4
##########                         Heavy_Atoms:                  26
##########                    Molecular_Weight:             343.388
##########                DOCK_Rotatable_Bonds:                   4
##########                       Formal_Charge:           -0.010001
##########                     HBond_Acceptors:                   6
##########                        HBond_Donors:                   4
##########                         Heavy_Atoms:                  26
##########                          Grid_Score:          -25.802877
##########                     Grid_vdw_energy:          -23.894730
##########                      Grid_es_energy:           -1.908147
##########           Internal_energy_repulsive:            7.234663

@<TRIPOS>MOLECULE
ZINC001173835973
 43 46 1 0 0
SMALL
USER_CHARGES


@<TRIPOS>ATOM
      1 C1        -17.3419    3.6727   61.6917 C.3     1  ZINC001173835973   -0.1700
      2 C2        -17.4369    2.2296   61.2678 C.2     1  ZINC001173835973    0.5100
      3 O3        -18.3006    1.5164   61.7331 O.2     1  ZINC001173835973   -0.5200
      4 N4        -16.5622    1.7316   60.3715 N.am    1  ZINC001173835973   -0.6800
      5 C5        -16.6503    0.3917   59.9779 C.ar    1  ZINC001173835973    0.1800
      6 C6        -17.7855   -0.0669   59.3217 C.ar    1  ZINC001173835973   -0.1900
      7 C7        -17.8737   -1.3900   58.9324 C.ar    1  ZINC001173835973   -0.0600
      8 C8        -16.8340   -2.2608   59.1936 C.ar    1  ZINC001173835973   -0.1900
      9 C9        -15.6950   -1.8083   59.8500 C.ar    1  ZINC001173835973    0.2200
     10 N10       -14.6441   -2.6889   60.1140 N.pl3   1  ZINC001173835973   -0.6900
     11 C11       -13.3211   -2.2825   59.9050 C.ar    1  ZINC001173835973    0.0400
     12 C12       -12.4865   -2.1203   60.9713 C.ar    1  ZINC001173835973    0.2400
     13 N13       -12.9594   -2.3615   62.2662 N.pl3   1  ZINC001173835973   -0.8600
     14 C14       -11.1044   -1.6977   60.7725 C.ar    1  ZINC001173835973   -0.1100
     15 C15       -10.2401   -1.5296   61.8666 C.ar    1  ZINC001173835973   -0.0600
     16 C16        -8.9537   -1.1319   61.6211 C.ar    1  ZINC001173835973   -0.1700
     17 C17        -8.5375   -0.9066   60.3143 C.ar    1  ZINC001173835973    0.1200
     18 N18        -9.3523   -1.0662   59.2963 N.ar    1  ZINC001173835973   -0.4400
     19 C19       -10.6144   -1.4513   59.4710 C.ar    1  ZINC001173835973    0.1900
     20 C20       -11.5125   -1.6257   58.3234 C.ar    1  ZINC001173835973    0.1300
     21 N21       -11.0846   -1.4025   57.0829 N.ar    1  ZINC001173835973   -0.4400
     22 C22       -11.8775   -1.5548   56.0467 C.ar    1  ZINC001173835973    0.1000
     23 C23       -13.1997   -1.9558   56.1956 C.ar    1  ZINC001173835973   -0.1500
     24 C24       -13.6997   -2.2011   57.4460 C.ar    1  ZINC001173835973   -0.0700
     25 C25       -12.8437   -2.0412   58.5476 C.ar    1  ZINC001173835973   -0.0400
     26 C26       -15.6014   -0.4787   60.2376 C.ar    1  ZINC001173835973   -0.1900
     27 H27       -18.1266    3.8909   62.4161 H       1  ZINC001173835973    0.1000
     28 H28       -16.3678    3.8547   62.1454 H       1  ZINC001173835973    0.0900
     29 H29       -17.4628    4.3160   60.8202 H       1  ZINC001173835973    0.0900
     30 H30       -15.8715    2.3019   59.9993 H       1  ZINC001173835973    0.4100
     31 H31       -18.6004    0.6113   59.1158 H       1  ZINC001173835973    0.1200
     32 H32       -18.7579   -1.7440   58.4230 H       1  ZINC001173835973    0.1200
     33 H33       -16.9060   -3.2941   58.8882 H       1  ZINC001173835973    0.1200
     34 H34       -14.8308   -3.5824   60.4424 H       1  ZINC001173835973    0.4000
     35 H35       -13.8510   -2.7201   62.3979 H       1  ZINC001173835973    0.4100
     36 H36       -12.3955   -2.1703   63.0319 H       1  ZINC001173835973    0.4000
     37 H37       -10.5817   -1.7091   62.8753 H       1  ZINC001173835973    0.1400
     38 H38        -8.2640   -0.9931   62.4406 H       1  ZINC001173835973    0.1400
     39 H39        -7.5205   -0.5927   60.1315 H       1  ZINC001173835973    0.1700
     40 H40       -11.4929   -1.3635   55.0557 H       1  ZINC001173835973    0.1600
     41 H41       -13.8311   -2.0733   55.3274 H       1  ZINC001173835973    0.1400
     42 H42       -14.7248   -2.5131   57.5815 H       1  ZINC001173835973    0.1400
     43 H43       -14.7177   -0.1244   60.7473 H       1  ZINC001173835973    0.1400
@<TRIPOS>BOND
     1     1     2    1
     2     1    27    1
     3     1    28    1
     4     1    29    1
     5     2     3    2
     6     2     4   am
     7     4     5    1
     8     4    30    1
     9     5    26   ar
    10     5     6   ar
    11     6     7   ar
    12     6    31    1
    13     7     8   ar
    14     7    32    1
    15     8     9   ar
    16     8    33    1
    17     9    10    1
    18     9    26   ar
    19    10    11    1
    20    10    34    1
    21    11    25   ar
    22    11    12   ar
    23    12    13    1
    24    12    14   ar
    25    13    35    1
    26    13    36    1
    27    14    19   ar
    28    14    15   ar
    29    15    16   ar
    30    15    37    1
    31    16    17   ar
    32    16    38    1
    33    17    18   ar
    34    17    39    1
    35    18    19   ar
    36    19    20   ar
    37    20    25   ar
    38    20    21   ar
    39    21    22   ar
    40    22    23   ar
    41    22    40    1
    42    23    24   ar
    43    23    41    1
    44    24    25   ar
    45    24    42    1
    46    26    43    1
@<TRIPOS>SUBSTRUCTURE
     1 ZINC001173835973        1 TEMP              0 ****  ****    0 ROOT


##########                                Name:    ZINC000077537368
##########                DOCK_Rotatable_Bonds:                   5
##########                         Heavy_Atoms:                  27
##########                    Molecular_Weight:             365.478
##########                DOCK_Rotatable_Bonds:                   5
##########                       Formal_Charge:          -0.0400007
##########                     HBond_Acceptors:                   6
##########                        HBond_Donors:                   0
##########                         Heavy_Atoms:                  27
##########                          Grid_Score:          -25.790520
##########                     Grid_vdw_energy:          -25.394573
##########                      Grid_es_energy:           -0.395946
##########           Internal_energy_repulsive:           16.186855

@<TRIPOS>MOLECULE
ZINC000077537368
 54 56 1 0 0
SMALL
USER_CHARGES


@<TRIPOS>ATOM
      1 C1         -0.6889    6.7153   55.5042 C.3     1  ZINC000077537368    0.0800
      2 N2         -1.5154    5.5140   55.3639 N.pl3   1  ZINC000077537368   -0.2600
      3 N3         -2.6351    5.3121   55.9601 N.2     1  ZINC000077537368   -0.2700
      4 C4         -3.1350    4.1475   55.6337 C.2     1  ZINC000077537368    0.0400
      5 C5         -4.4330    3.5676   56.1335 C.3     1  ZINC000077537368    0.0200
      6 C6         -5.4540    3.5455   54.9942 C.3     1  ZINC000077537368   -0.1400
      7 C7         -4.1954    2.1411   56.6331 C.3     1  ZINC000077537368   -0.1400
      8 C8         -4.9676    4.4273   57.2807 C.3     1  ZINC000077537368   -0.1400
      9 C9         -2.2523    3.5379   54.7393 C.2     1  ZINC000077537368   -0.2000
     10 C10        -1.2159    4.4402   54.5744 C.2     1  ZINC000077537368   -0.0400
     11 C11        -0.0254    4.2727   53.7257 C.2     1  ZINC000077537368    0.5900
     12 O12         0.9653    3.7239   54.1693 O.2     1  ZINC000077537368   -0.5400
     13 N13        -0.0329    4.7274   52.4570 N.am    1  ZINC000077537368   -0.6000
     14 C14         1.1439    4.5649   51.5898 C.3     1  ZINC000077537368    0.0800
     15 C15         0.6921    3.9315   50.2697 C.3     1  ZINC000077537368    0.0400
     16 N16        -0.3978    4.7310   49.6944 N.3     1  ZINC000077537368   -0.5300
     17 C17        -0.7434    4.2578   48.3474 C.3     1  ZINC000077537368    0.0900
     18 C18        -0.8293    2.7532   48.3502 C.ar    1  ZINC000077537368   -0.0500
     19 C19        -2.0288    2.1324   48.6508 C.ar    1  ZINC000077537368   -0.1200
     20 C20        -2.1143    0.7556   48.6555 C.ar    1  ZINC000077537368   -0.0700
     21 C21        -0.9870   -0.0117   48.3557 C.ar    1  ZINC000077537368   -0.0300
     22 C22        -1.0686   -1.4413   48.3583 C.1     1  ZINC000077537368    0.2500
     23 N23        -1.1333   -2.5755   48.3604 N.1     1  ZINC000077537368   -0.4100
     24 C24         0.2202    0.6213   48.0529 C.ar    1  ZINC000077537368   -0.0700
     25 C25         0.2903    1.9990   48.0466 C.ar    1  ZINC000077537368   -0.1000
     26 C26        -1.5770    4.7330   50.5704 C.3     1  ZINC000077537368    0.0400
     27 C27        -1.2203    5.3938   51.9010 C.3     1  ZINC000077537368    0.1200
     28 H28        -0.9143    7.4082   54.6936 H       1  ZINC000077537368    0.0800
     29 H29        -0.9019    7.1932   56.4605 H       1  ZINC000077537368    0.1000
     30 H30         0.3645    6.4385   55.4632 H       1  ZINC000077537368    0.1100
     31 H31        -5.0731    2.9331   54.1769 H       1  ZINC000077537368    0.0600
     32 H32        -6.3928    3.1260   55.3557 H       1  ZINC000077537368    0.0600
     33 H33        -5.6233    4.5618   54.6383 H       1  ZINC000077537368    0.0600
     34 H34        -3.4680    2.1568   57.4447 H       1  ZINC000077537368    0.0600
     35 H35        -5.1342    1.7216   56.9946 H       1  ZINC000077537368    0.0600
     36 H36        -3.8145    1.5286   55.8158 H       1  ZINC000077537368    0.0600
     37 H37        -5.1369    5.4436   56.9249 H       1  ZINC000077537368    0.0600
     38 H38        -5.9064    4.0078   57.6422 H       1  ZINC000077537368    0.0600
     39 H39        -4.2402    4.4430   58.0924 H       1  ZINC000077537368    0.0600
     40 H40        -2.3579    2.5696   54.2726 H       1  ZINC000077537368    0.1700
     41 H41         1.5918    5.5392   51.3941 H       1  ZINC000077537368    0.0800
     42 H42         1.8712    3.9157   52.0774 H       1  ZINC000077537368    0.1200
     43 H43         1.5303    3.9048   49.5734 H       1  ZINC000077537368    0.0900
     44 H44         0.3400    2.9166   50.4549 H       1  ZINC000077537368    0.0400
     45 H45        -1.7053    4.6759   48.0510 H       1  ZINC000077537368    0.0900
     46 H46         0.0242    4.5765   47.6422 H       1  ZINC000077537368    0.0500
     47 H47        -2.9000    2.7272   48.8825 H       1  ZINC000077537368    0.1300
     48 H48        -3.0510    0.2723   48.8910 H       1  ZINC000077537368    0.1300
     49 H49         1.0959    0.0338   47.8200 H       1  ZINC000077537368    0.1300
     50 H50         1.2232    2.4900   47.8122 H       1  ZINC000077537368    0.1400
     51 H51        -2.3844    5.2876   50.0923 H       1  ZINC000077537368    0.1000
     52 H52        -1.8974    3.7071   50.7514 H       1  ZINC000077537368    0.0400
     53 H53        -2.0557    5.2954   52.5942 H       1  ZINC000077537368    0.1000
     54 H54        -0.9983    6.4485   51.7381 H       1  ZINC000077537368    0.0800
@<TRIPOS>BOND
     1     1     2    1
     2     1    28    1
     3     1    29    1
     4     1    30    1
     5     2    10    1
     6     2     3    1
     7     3     4    2
     8     4     5    1
     9     4     9    1
    10     5     6    1
    11     5     7    1
    12     5     8    1
    13     6    31    1
    14     6    32    1
    15     6    33    1
    16     7    34    1
    17     7    35    1
    18     7    36    1
    19     8    37    1
    20     8    38    1
    21     8    39    1
    22     9    10    2
    23     9    40    1
    24    10    11    1
    25    11    12    2
    26    11    13   am
    27    13    27    1
    28    13    14    1
    29    14    15    1
    30    14    41    1
    31    14    42    1
    32    15    16    1
    33    15    43    1
    34    15    44    1
    35    16    17    1
    36    16    26    1
    37    17    18    1
    38    17    45    1
    39    17    46    1
    40    18    25   ar
    41    18    19   ar
    42    19    20   ar
    43    19    47    1
    44    20    21   ar
    45    20    48    1
    46    21    22    1
    47    21    24   ar
    48    22    23    3
    49    24    25   ar
    50    24    49    1
    51    25    50    1
    52    26    27    1
    53    26    51    1
    54    26    52    1
    55    27    53    1
    56    27    54    1
@<TRIPOS>SUBSTRUCTURE
     1 ZINC000077537368        1 TEMP              0 ****  ****    0 ROOT


##########                                Name:    ZINC000277311370
##########                DOCK_Rotatable_Bonds:                   5
##########                         Heavy_Atoms:                  17
##########                    Molecular_Weight:             361.036
##########                DOCK_Rotatable_Bonds:                   5
##########                       Formal_Charge:        -7.45058e-08
##########                     HBond_Acceptors:                   4
##########                        HBond_Donors:                   1
##########                         Heavy_Atoms:                  17
##########                          Grid_Score:          -25.740486
##########                     Grid_vdw_energy:          -24.316488
##########                      Grid_es_energy:           -1.423999
##########           Internal_energy_repulsive:            9.266248

@<TRIPOS>MOLECULE
ZINC000277311370
 28 28 1 0 0
SMALL
USER_CHARGES


@<TRIPOS>ATOM
      1 C1         -2.3613   -0.1969   47.0013 C.3     1  ZINC000277311370   -0.1500
      2 C2         -1.4092   -0.1483   48.1981 C.3     1  ZINC000277311370   -0.1000
      3 C3         -0.0961   -0.8439   47.8338 C.3     1  ZINC000277311370   -0.1600
      4 C4         -1.1286    1.3097   48.5675 C.3     1  ZINC000277311370    0.2500
      5 H5         -0.2425    1.3601   49.2003 H       1  ZINC000277311370    0.1400
      6 C6         -2.2829    1.8626   49.2945 C.1     1  ZINC000277311370    0.1900
      7 N7         -3.1737    2.2894   49.8556 N.1     1  ZINC000277311370   -0.4100
      8 N8         -0.9018    2.0877   47.3470 N.am    1  ZINC000277311370   -0.7000
      9 C9          0.3274    2.5671   47.0720 C.2     1  ZINC000277311370    0.5700
     10 O10         1.2481    2.3526   47.8357 O.2     1  ZINC000277311370   -0.4900
     11 C11         0.5563    3.3550   45.8391 C.ar    1  ZINC000277311370    0.1100
     12 N12         0.8998    2.7356   44.7162 N.ar    1  ZINC000277311370   -0.4300
     13 C13         1.1116    3.3984   43.5994 C.ar    1  ZINC000277311370    0.1300
     14 Br14        1.5986    2.4560   42.0340 Br      1  ZINC000277311370    0.0200
     15 C15         0.9824    4.7788   43.5546 C.ar    1  ZINC000277311370   -0.1100
     16 C16         0.6255    5.4652   44.7037 C.ar    1  ZINC000277311370   -0.0400
     17 C17         0.4035    4.7403   45.8657 C.ar    1  ZINC000277311370   -0.0900
     18 Br18       -0.0861    5.6204   47.4663 Br      1  ZINC000277311370    0.0300
     19 H19        -2.5612   -1.2356   46.7380 H       1  ZINC000277311370    0.0700
     20 H20        -3.2967    0.2987   47.2609 H       1  ZINC000277311370    0.0700
     21 H21        -1.9041    0.3116   46.1525 H       1  ZINC000277311370    0.0600
     22 H22        -1.8664   -0.6567   49.0470 H       1  ZINC000277311370    0.1000
     23 H23         0.3611   -0.3355   46.9849 H       1  ZINC000277311370    0.0600
     24 H24         0.5822   -0.8092   48.6863 H       1  ZINC000277311370    0.0600
     25 H25        -0.2960   -1.8826   47.5705 H       1  ZINC000277311370    0.0700
     26 H26        -1.6364    2.2578   46.7368 H       1  ZINC000277311370    0.4200
     27 H27         1.1586    5.3132   42.6329 H       1  ZINC000277311370    0.1600
     28 H28         0.5185    6.5399   44.6942 H       1  ZINC000277311370    0.1700
@<TRIPOS>BOND
     1     1     2    1
     2     1    19    1
     3     1    20    1
     4     1    21    1
     5     2     3    1
     6     2     4    1
     7     2    22    1
     8     3    23    1
     9     3    24    1
    10     3    25    1
    11     4     5    1
    12     4     6    1
    13     4     8    1
    14     6     7    3
    15     8     9   am
    16     8    26    1
    17     9    10    2
    18     9    11    1
    19    11    17   ar
    20    11    12   ar
    21    12    13   ar
    22    13    14    1
    23    13    15   ar
    24    15    16   ar
    25    15    27    1
    26    16    17   ar
    27    16    28    1
    28    17    18    1
@<TRIPOS>SUBSTRUCTURE
     1 ZINC000277311370        1 TEMP              0 ****  ****    0 ROOT


##########                                Name:    ZINC001231746020
##########                DOCK_Rotatable_Bonds:                   3
##########                         Heavy_Atoms:                  19
##########                    Molecular_Weight:             348.667
##########                DOCK_Rotatable_Bonds:                   3
##########                       Formal_Charge:          -0.0399997
##########                     HBond_Acceptors:                   4
##########                        HBond_Donors:                   2
##########                         Heavy_Atoms:                  19
##########                          Grid_Score:          -25.655054
##########                     Grid_vdw_energy:          -24.437912
##########                      Grid_es_energy:           -1.217142
##########           Internal_energy_repulsive:           16.414261

@<TRIPOS>MOLECULE
ZINC001231746020
 38 39 1 0 0
SMALL
USER_CHARGES


@<TRIPOS>ATOM
      1 C1         -1.0312    6.1769   52.5629 C.3     1  ZINC001231746020   -0.1500
      2 C2         -1.3339    5.2741   51.3654 C.3     1  ZINC001231746020   -0.0900
      3 H3         -1.6969    5.8791   50.5344 H       1  ZINC001231746020    0.0800
      4 C4         -0.0817    4.5483   50.9516 C.3     1  ZINC001231746020   -0.1400
      5 C5         -0.0122    4.2550   49.4421 C.3     1  ZINC001231746020   -0.0100
      6 N6         -1.2914    3.7796   48.8728 N.4     1  ZINC001231746020   -0.3800
      7 H7         -1.9016    4.5705   48.7305 H       1  ZINC001231746020    0.4100
      8 C8         -1.0293    3.1392   47.5771 C.3     1  ZINC001231746020    0.0700
      9 C9         -0.4602    1.7622   47.8033 C.ar    1  ZINC001231746020   -0.3100
     10 C10         0.9036    1.5960   47.9561 C.ar    1  ZINC001231746020   -0.0300
     11 C11         1.4285    0.3337   48.1642 C.ar    1  ZINC001231746020   -0.1600
     12 Cl12        3.1413    0.1257   48.3559 Cl      1  ZINC001231746020   -0.0800
     13 C13         0.5847   -0.7667   48.2190 C.ar    1  ZINC001231746020    0.3100
     14 O14         1.0979   -2.0088   48.4239 O.3     1  ZINC001231746020   -0.6300
     15 C15        -0.7840   -0.5967   48.0648 C.ar    1  ZINC001231746020   -0.2100
     16 Br16       -1.9378   -2.0932   48.1388 Br      1  ZINC001231746020   -0.0600
     17 C17        -1.3037    0.6681   47.8632 C.ar    1  ZINC001231746020   -0.0200
     18 C18        -1.9482    2.8323   49.7406 C.3     1  ZINC001231746020   -0.0200
     19 C19        -2.9836    3.5993   50.5788 C.3     1  ZINC001231746020   -0.1800
     20 C20        -2.4093    4.2312   51.7603 C.3     1  ZINC001231746020    0.1000
     21 H21        -3.2010    4.7282   52.3209 H       1  ZINC001231746020    0.0700
     22 O22        -1.8106    3.2288   52.5842 O.3     1  ZINC001231746020   -0.5600
     23 H23        -0.2662    6.9026   52.2866 H       1  ZINC001231746020    0.0600
     24 H24        -0.6728    5.5698   53.3942 H       1  ZINC001231746020    0.0700
     25 H25        -1.9390    6.7016   52.8610 H       1  ZINC001231746020    0.0600
     26 H26         0.7808    5.1540   51.2295 H       1  ZINC001231746020    0.1000
     27 H27        -0.0317    3.6028   51.4916 H       1  ZINC001231746020    0.1000
     28 H28         0.2832    5.1668   48.9229 H       1  ZINC001231746020    0.1200
     29 H29         0.7502    3.4957   49.2690 H       1  ZINC001231746020    0.1200
     30 H30        -1.9605    3.0598   47.0160 H       1  ZINC001231746020    0.1200
     31 H31        -0.3153    3.7393   47.0130 H       1  ZINC001231746020    0.1200
     32 H32         1.5598    2.4528   47.9132 H       1  ZINC001231746020    0.1100
     33 H33        -2.3693    0.8016   47.7482 H       1  ZINC001231746020    0.1100
     34 H34        -2.4486    2.0703   49.1431 H       1  ZINC001231746020    0.1400
     35 H35        -1.2151    2.3636   50.3971 H       1  ZINC001231746020    0.1300
     36 H36        -3.4379    4.3695   49.9555 H       1  ZINC001231746020    0.0900
     37 H37        -3.7605    2.9045   50.8978 H       1  ZINC001231746020    0.1100
     38 H38        -2.4139    2.5175   52.8394 H       1  ZINC001231746020    0.3900
@<TRIPOS>BOND
     1     1     2    1
     2     1    23    1
     3     1    24    1
     4     1    25    1
     5     2     3    1
     6     2    20    1
     7     2     4    1
     8     4     5    1
     9     4    26    1
    10     4    27    1
    11     5     6    1
    12     5    28    1
    13     5    29    1
    14     6     7    1
    15     6     8    1
    16     6    18    1
    17     8     9    1
    18     8    30    1
    19     8    31    1
    20     9    17   ar
    21     9    10   ar
    22    10    11   ar
    23    10    32    1
    24    11    12    1
    25    11    13   ar
    26    13    14    1
    27    13    15   ar
    28    15    16    1
    29    15    17   ar
    30    17    33    1
    31    18    19    1
    32    18    34    1
    33    18    35    1
    34    19    20    1
    35    19    36    1
    36    19    37    1
    37    20    21    1
    38    20    22    1
    39    22    38    1
@<TRIPOS>SUBSTRUCTURE
     1 ZINC001231746020        1 TEMP              0 ****  ****    0 ROOT


##########                                Name:    ZINC000541315701
##########                DOCK_Rotatable_Bonds:                   4
##########                         Heavy_Atoms:                  25
##########                    Molecular_Weight:             422.709
##########                DOCK_Rotatable_Bonds:                   4
##########                       Formal_Charge:           0.0300003
##########                     HBond_Acceptors:                   6
##########                        HBond_Donors:                   0
##########                         Heavy_Atoms:                  25
##########                          Grid_Score:          -25.648003
##########                     Grid_vdw_energy:          -25.190062
##########                      Grid_es_energy:           -0.457942
##########           Internal_energy_repulsive:           30.050182

@<TRIPOS>MOLECULE
ZINC000541315701
 42 44 1 0 0
SMALL
USER_CHARGES


@<TRIPOS>ATOM
      1 C1          1.5214    1.3413   43.5594 C.3     1  ZINC000541315701    0.0800
      2 N2          0.6942    1.6426   44.7304 N.am    1  ZINC000541315701   -0.5700
      3 C3         -0.4391    0.9476   44.9518 C.2     1  ZINC000541315701    0.5400
      4 O4         -0.7741    0.0727   44.1817 O.2     1  ZINC000541315701   -0.5000
      5 C5         -1.2900    1.2578   46.1563 C.3     1  ZINC000541315701   -0.1100
      6 H6         -1.4908    2.3270   46.2246 H       1  ZINC000541315701    0.1300
      7 C7         -2.6070    0.4482   46.1268 C.3     1  ZINC000541315701   -0.1500
      8 C8         -2.2964   -0.7946   46.9316 C.2     1  ZINC000541315701    0.5200
      9 O9         -2.9574   -1.8115   46.9219 O.2     1  ZINC000541315701   -0.5200
     10 N10        -1.1814   -0.6080   47.6585 N.am    1  ZINC000541315701   -0.6100
     11 C11        -0.5940   -1.6161   48.5446 C.3     1  ZINC000541315701    0.0900
     12 C12        -0.6273    0.7360   47.4505 C.3     1  ZINC000541315701    0.1900
     13 H13         0.4542    0.6831   47.3261 H       1  ZINC000541315701    0.1100
     14 C14        -0.9745    1.6290   48.6137 C.ar    1  ZINC000541315701   -0.0900
     15 C15        -2.2356    1.5715   49.1766 C.ar    1  ZINC000541315701   -0.1000
     16 C16        -2.5548    2.3901   50.2441 C.ar    1  ZINC000541315701   -0.1000
     17 C17        -1.6132    3.2667   50.7487 C.ar    1  ZINC000541315701   -0.1000
     18 C18        -0.3504    3.3246   50.1858 C.ar    1  ZINC000541315701   -0.0300
     19 Cl19        0.8333    4.4250   50.8195 Cl      1  ZINC000541315701   -0.0600
     20 C20        -0.0299    2.5013   49.1213 C.ar    1  ZINC000541315701   -0.0900
     21 C21         1.0794    2.6486   45.6158 C.ar    1  ZINC000541315701    0.3800
     22 N22         0.3745    3.7664   45.6850 N.ar    1  ZINC000541315701   -0.4700
     23 C23         0.7040    4.7428   46.5090 C.ar    1  ZINC000541315701    0.1300
     24 C24         1.8048    4.6316   47.3348 C.ar    1  ZINC000541315701   -0.1600
     25 C25         2.5717    3.4750   47.2934 C.ar    1  ZINC000541315701   -0.0400
     26 C26         2.1980    2.4660   46.4225 C.ar    1  ZINC000541315701   -0.1300
     27 Br27        3.2020    0.8667   46.3211 Br      1  ZINC000541315701   -0.0200
     28 H28         0.8812    1.0416   42.7297 H       1  ZINC000541315701    0.0900
     29 H29         2.0897    2.2279   43.2781 H       1  ZINC000541315701    0.0800
     30 H30         2.2089    0.5301   43.7993 H       1  ZINC000541315701    0.0700
     31 H31        -3.4131    1.0137   46.5941 H       1  ZINC000541315701    0.1200
     32 H32        -2.8693    0.1837   45.1023 H       1  ZINC000541315701    0.1100
     33 H33        -1.1995   -2.5219   48.5163 H       1  ZINC000541315701    0.0900
     34 H34         0.4188   -1.8455   48.2130 H       1  ZINC000541315701    0.0700
     35 H35        -0.5640   -1.2307   49.5638 H       1  ZINC000541315701    0.0600
     36 H36        -2.9721    0.8872   48.7820 H       1  ZINC000541315701    0.1300
     37 H37        -3.5404    2.3448   50.6835 H       1  ZINC000541315701    0.1400
     38 H38        -1.8628    3.9066   51.5822 H       1  ZINC000541315701    0.1400
     39 H39         0.9554    2.5461   48.6816 H       1  ZINC000541315701    0.1400
     40 H40         0.1048    5.6410   46.5377 H       1  ZINC000541315701    0.1700
     41 H41         2.0669    5.4363   48.0059 H       1  ZINC000541315701    0.1500
     42 H42         3.4375    3.3634   47.9292 H       1  ZINC000541315701    0.1500
@<TRIPOS>BOND
     1     1     2    1
     2     1    28    1
     3     1    29    1
     4     1    30    1
     5     2     3   am
     6     2    21    1
     7     3     4    2
     8     3     5    1
     9     5     6    1
    10     5    12    1
    11     5     7    1
    12     7     8    1
    13     7    31    1
    14     7    32    1
    15     8     9    2
    16     8    10   am
    17    10    11    1
    18    10    12    1
    19    11    33    1
    20    11    34    1
    21    11    35    1
    22    12    13    1
    23    12    14    1
    24    14    20   ar
    25    14    15   ar
    26    15    16   ar
    27    15    36    1
    28    16    17   ar
    29    16    37    1
    30    17    18   ar
    31    17    38    1
    32    18    19    1
    33    18    20   ar
    34    20    39    1
    35    21    26   ar
    36    21    22   ar
    37    22    23   ar
    38    23    24   ar
    39    23    40    1
    40    24    25   ar
    41    24    41    1
    42    25    26   ar
    43    25    42    1
    44    26    27    1
@<TRIPOS>SUBSTRUCTURE
     1 ZINC000541315701        1 TEMP              0 ****  ****    0 ROOT


##########                                Name:    ZINC000331626032
##########                DOCK_Rotatable_Bonds:                   5
##########                         Heavy_Atoms:                  25
##########                    Molecular_Weight:              339.44
##########                DOCK_Rotatable_Bonds:                   5
##########                       Formal_Charge:        -2.16067e-07
##########                     HBond_Acceptors:                   6
##########                        HBond_Donors:                   2
##########                         Heavy_Atoms:                  25
##########                          Grid_Score:          -25.643480
##########                     Grid_vdw_energy:          -26.089897
##########                      Grid_es_energy:            0.446416
##########           Internal_energy_repulsive:           27.120426

@<TRIPOS>MOLECULE
ZINC000331626032
 50 52 1 0 0
SMALL
USER_CHARGES


@<TRIPOS>ATOM
      1 C1        -10.6796   -2.0247   51.9820 C.3     1  ZINC000331626032   -0.2000
      2 C2        -11.6373   -1.1646   52.8091 C.3     1  ZINC000331626032    0.0700
      3 H3        -12.6024   -1.1088   52.3056 H       1  ZINC000331626032    0.1100
      4 C4        -11.8169   -1.7817   54.1721 C.2     1  ZINC000331626032    0.5200
      5 O5        -10.8637   -2.2554   54.7537 O.2     1  ZINC000331626032   -0.5000
      6 N6        -13.0366   -1.8073   54.7449 N.am    1  ZINC000331626032   -0.5800
      7 C7        -14.1878   -1.2353   54.0426 C.3     1  ZINC000331626032    0.0800
      8 C8        -13.2032   -2.3804   56.0106 C.ar    1  ZINC000331626032    0.1400
      9 C9        -13.4453   -1.5723   57.1138 C.ar    1  ZINC000331626032   -0.1000
     10 C10       -13.6095   -2.1410   58.3617 C.ar    1  ZINC000331626032   -0.1100
     11 C11       -13.5323   -3.5132   58.5133 C.ar    1  ZINC000331626032   -0.1200
     12 C12       -13.2909   -4.3205   57.4169 C.ar    1  ZINC000331626032   -0.1100
     13 C13       -13.1327   -3.7586   56.1652 C.ar    1  ZINC000331626032   -0.1200
     14 N14       -11.0812    0.1874   52.9530 N.3     1  ZINC000331626032   -0.5100
     15 C15       -12.1497    1.1934   53.0032 C.3     1  ZINC000331626032    0.0500
     16 C16       -11.5336    2.5942   53.0064 C.3     1  ZINC000331626032   -0.1100
     17 C17       -10.6134    2.7391   54.2216 C.3     1  ZINC000331626032   -0.1100
     18 C18        -9.5386    1.6497   54.1706 C.3     1  ZINC000331626032   -0.0400
     19 H19        -8.9299    1.7806   53.2758 H       1  ZINC000331626032    0.1000
     20 C20        -8.6633    1.7488   55.3934 C.ar    1  ZINC000331626032    0.2300
     21 C21        -9.1882    1.5072   56.6529 C.ar    1  ZINC000331626032   -0.2900
     22 C22        -8.3488    1.6092   57.7515 C.ar    1  ZINC000331626032    0.1900
     23 N23        -7.0797    1.9320   57.5659 N.ar    1  ZINC000331626032   -0.5700
     24 C24        -6.6091    2.1566   56.3477 C.ar    1  ZINC000331626032    0.5700
     25 N25        -5.2756    2.4919   56.1899 N.pl3   1  ZINC000331626032   -0.8200
     26 N26        -7.3834    2.0622   55.2769 N.ar    1  ZINC000331626032   -0.5700
     27 C27       -10.2124    0.2762   54.1336 C.3     1  ZINC000331626032    0.0700
     28 H28        -9.7145   -2.0804   52.4856 H       1  ZINC000331626032    0.0700
     29 H29       -11.0922   -3.0279   51.8752 H       1  ZINC000331626032    0.0800
     30 H30       -10.5497   -1.5783   50.9961 H       1  ZINC000331626032    0.0700
     31 H31       -14.6595   -2.0046   53.4312 H       1  ZINC000331626032    0.0600
     32 H32       -14.9066   -0.8579   54.7700 H       1  ZINC000331626032    0.0800
     33 H33       -13.8541   -0.4176   53.4037 H       1  ZINC000331626032    0.0800
     34 H34       -13.5050   -0.5004   56.9961 H       1  ZINC000331626032    0.1200
     35 H35       -13.7976   -1.5131   59.2200 H       1  ZINC000331626032    0.1300
     36 H36       -13.6607   -3.9555   59.4903 H       1  ZINC000331626032    0.1300
     37 H37       -13.2306   -5.3920   57.5387 H       1  ZINC000331626032    0.1300
     38 H38       -12.9441   -4.3896   55.3092 H       1  ZINC000331626032    0.1200
     39 H39       -12.7945    1.0822   52.1314 H       1  ZINC000331626032    0.0900
     40 H40       -12.7381    1.0534   53.9101 H       1  ZINC000331626032    0.0300
     41 H41       -10.9564    2.7401   52.0933 H       1  ZINC000331626032    0.0800
     42 H42       -12.3265    3.3404   53.0594 H       1  ZINC000331626032    0.0700
     43 H43       -10.1388    3.7201   54.2043 H       1  ZINC000331626032    0.0700
     44 H44       -11.1974    2.6319   55.1356 H       1  ZINC000331626032    0.0700
     45 H45       -10.2288    1.2456   56.7761 H       1  ZINC000331626032    0.1400
     46 H46        -8.7266    1.4276   58.7468 H       1  ZINC000331626032    0.1700
     47 H47        -4.6975    2.5600   56.9657 H       1  ZINC000331626032    0.4100
     48 H48        -4.9192    2.6588   55.3033 H       1  ZINC000331626032    0.4100
     49 H49       -10.8099    0.1405   55.0352 H       1  ZINC000331626032    0.0400
     50 H50        -9.4501   -0.5012   54.0829 H       1  ZINC000331626032    0.0800
@<TRIPOS>BOND
     1     1     2    1
     2     1    28    1
     3     1    29    1
     4     1    30    1
     5     2     3    1
     6     2     4    1
     7     2    14    1
     8     4     5    2
     9     4     6   am
    10     6     7    1
    11     6     8    1
    12     7    31    1
    13     7    32    1
    14     7    33    1
    15     8    13   ar
    16     8     9   ar
    17     9    10   ar
    18     9    34    1
    19    10    11   ar
    20    10    35    1
    21    11    12   ar
    22    11    36    1
    23    12    13   ar
    24    12    37    1
    25    13    38    1
    26    14    27    1
    27    14    15    1
    28    15    16    1
    29    15    39    1
    30    15    40    1
    31    16    17    1
    32    16    41    1
    33    16    42    1
    34    17    18    1
    35    17    43    1
    36    17    44    1
    37    18    19    1
    38    18    20    1
    39    18    27    1
    40    20    26   ar
    41    20    21   ar
    42    21    22   ar
    43    21    45    1
    44    22    23   ar
    45    22    46    1
    46    23    24   ar
    47    24    25    1
    48    24    26   ar
    49    25    47    1
    50    25    48    1
    51    27    49    1
    52    27    50    1
@<TRIPOS>SUBSTRUCTURE
     1 ZINC000331626032        1 TEMP              0 ****  ****    0 ROOT


##########                                Name:    ZINC001708427409
##########                DOCK_Rotatable_Bonds:                   6
##########                         Heavy_Atoms:                  24
##########                    Molecular_Weight:             334.505
##########                DOCK_Rotatable_Bonds:                   6
##########                       Formal_Charge:          -0.0200006
##########                     HBond_Acceptors:                   5
##########                        HBond_Donors:                   1
##########                         Heavy_Atoms:                  24
##########                          Grid_Score:          -25.598534
##########                     Grid_vdw_energy:          -24.589687
##########                      Grid_es_energy:           -1.008846
##########           Internal_energy_repulsive:           20.195425

@<TRIPOS>MOLECULE
ZINC001708427409
 58 60 1 0 0
SMALL
USER_CHARGES


@<TRIPOS>ATOM
      1 C1        -15.8758    0.9496   56.9133 C.3     1  ZINC001708427409   -0.1500
      2 C2        -16.7975    0.1979   57.8755 C.3     1  ZINC001708427409   -0.1200
      3 C3        -16.1713   -1.1518   58.2318 C.3     1  ZINC001708427409    0.0000
      4 H4        -15.8452   -1.6531   57.3205 H       1  ZINC001708427409    0.0800
      5 C5        -17.2061   -2.0207   58.9495 C.3     1  ZINC001708427409   -0.1400
      6 C6        -14.9857   -0.9325   59.1360 C.2     1  ZINC001708427409    0.1800
      7 N7        -15.0130   -0.4247   60.3357 N.2     1  ZINC001708427409   -0.2800
      8 N8        -13.8244   -0.3810   60.8228 N.2     1  ZINC001708427409   -0.3200
      9 C9        -12.9681   -0.8624   59.9529 C.2     1  ZINC001708427409    0.3600
     10 N10       -11.5974   -0.9766   60.1228 N.3     1  ZINC001708427409   -0.4200
     11 C11       -11.2724   -1.5962   61.4375 C.3     1  ZINC001708427409    0.0400
     12 C12        -9.8226   -1.1537   61.7338 C.3     1  ZINC001708427409   -0.0900
     13 H13        -9.1213   -1.9364   61.4450 H       1  ZINC001708427409    0.0900
     14 C14        -9.6620   -0.8183   63.2180 C.3     1  ZINC001708427409   -0.1500
     15 C15        -9.6036    0.1141   60.8654 C.3     1  ZINC001708427409   -0.0800
     16 H16        -9.3082    0.9647   61.4795 H       1  ZINC001708427409    0.0900
     17 C17        -8.5206   -0.2243   59.8405 C.3     1  ZINC001708427409   -0.1100
     18 C18        -8.4747    0.8568   58.7611 C.3     1  ZINC001708427409   -0.1200
     19 C19        -9.7896    0.8222   57.9853 C.3     1  ZINC001708427409   -0.1100
     20 C20       -10.9617    1.0948   58.9059 C.3     1  ZINC001708427409   -0.1000
     21 C21       -10.9614    0.3555   60.2112 C.3     1  ZINC001708427409    0.1000
     22 H22       -11.5610    0.9388   60.9101 H       1  ZINC001708427409    0.0600
     23 N23       -13.6828   -1.2348   58.8518 N.pl3   1  ZINC001708427409   -0.4700
     24 C24       -13.1612   -1.8266   57.6173 C.3     1  ZINC001708427409    0.0800
     25 C25       -12.9310   -3.3245   57.8274 C.3     1  ZINC001708427409    0.1200
     26 C26       -14.2379   -3.9836   58.2735 C.3     1  ZINC001708427409   -0.1800
     27 C27       -12.4624   -3.9574   56.5158 C.3     1  ZINC001708427409   -0.1500
     28 O28       -11.9333   -3.5168   58.8323 O.3     1  ZINC001708427409   -0.5400
     29 H29       -15.7399    0.3613   56.0059 H       1  ZINC001708427409    0.0600
     30 H30       -16.3220    1.9112   56.6593 H       1  ZINC001708427409    0.0600
     31 H31       -14.9087    1.1122   57.3890 H       1  ZINC001708427409    0.0500
     32 H32       -16.9334    0.7863   58.7829 H       1  ZINC001708427409    0.0700
     33 H33       -17.7646    0.0353   57.3997 H       1  ZINC001708427409    0.0800
     34 H34       -18.0636   -2.1794   58.2956 H       1  ZINC001708427409    0.0700
     35 H35       -16.7599   -2.9822   59.2033 H       1  ZINC001708427409    0.0500
     36 H36       -17.5321   -1.5195   59.8609 H       1  ZINC001708427409    0.0700
     37 H37       -11.9474   -1.2257   62.2090 H       1  ZINC001708427409    0.0600
     38 H38       -11.3313   -2.6825   61.3702 H       1  ZINC001708427409    0.0800
     39 H39        -9.8693   -1.7060   63.8156 H       1  ZINC001708427409    0.0600
     40 H40        -8.6421   -0.4834   63.4065 H       1  ZINC001708427409    0.0600
     41 H41       -10.3604   -0.0266   63.4892 H       1  ZINC001708427409    0.0600
     42 H42        -7.5532   -0.2790   60.3400 H       1  ZINC001708427409    0.0600
     43 H43        -8.7448   -1.1866   59.3804 H       1  ZINC001708427409    0.0700
     44 H44        -8.3499    1.8343   59.2269 H       1  ZINC001708427409    0.0600
     45 H45        -7.6440    0.6622   58.0828 H       1  ZINC001708427409    0.0600
     46 H46        -9.7645    1.5798   57.2021 H       1  ZINC001708427409    0.0600
     47 H47        -9.9120   -0.1605   57.5297 H       1  ZINC001708427409    0.0600
     48 H48       -10.9788    2.1614   59.1299 H       1  ZINC001708427409    0.0600
     49 H49       -11.8795    0.8484   58.3721 H       1  ZINC001708427409    0.0700
     50 H50       -13.8802   -1.6789   56.8115 H       1  ZINC001708427409    0.0900
     51 H51       -12.2179   -1.3473   57.3549 H       1  ZINC001708427409    0.1000
     52 H52       -14.9988   -3.8369   57.5070 H       1  ZINC001708427409    0.0700
     53 H53       -14.0739   -5.0508   58.4233 H       1  ZINC001708427409    0.0700
     54 H54       -14.5717   -3.5326   59.2079 H       1  ZINC001708427409    0.0600
     55 H55       -11.5775   -3.4331   56.1551 H       1  ZINC001708427409    0.0700
     56 H56       -12.2195   -5.0065   56.6849 H       1  ZINC001708427409    0.0700
     57 H57       -13.2565   -3.8837   55.7726 H       1  ZINC001708427409    0.0700
     58 H58       -11.0770   -3.1224   58.6169 H       1  ZINC001708427409    0.3800
@<TRIPOS>BOND
     1     1     2    1
     2     1    29    1
     3     1    30    1
     4     1    31    1
     5     2     3    1
     6     2    32    1
     7     2    33    1
     8     3     4    1
     9     3     5    1
    10     3     6    1
    11     5    34    1
    12     5    35    1
    13     5    36    1
    14     6    23    1
    15     6     7    2
    16     7     8    1
    17     8     9    2
    18     9    10    1
    19     9    23    1
    20    10    21    1
    21    10    11    1
    22    11    12    1
    23    11    37    1
    24    11    38    1
    25    12    13    1
    26    12    14    1
    27    12    15    1
    28    14    39    1
    29    14    40    1
    30    14    41    1
    31    15    16    1
    32    15    21    1
    33    15    17    1
    34    17    18    1
    35    17    42    1
    36    17    43    1
    37    18    19    1
    38    18    44    1
    39    18    45    1
    40    19    20    1
    41    19    46    1
    42    19    47    1
    43    20    21    1
    44    20    48    1
    45    20    49    1
    46    21    22    1
    47    23    24    1
    48    24    25    1
    49    24    50    1
    50    24    51    1
    51    25    26    1
    52    25    27    1
    53    25    28    1
    54    26    52    1
    55    26    53    1
    56    26    54    1
    57    27    55    1
    58    27    56    1
    59    27    57    1
    60    28    58    1
@<TRIPOS>SUBSTRUCTURE
     1 ZINC001708427409        1 TEMP              0 ****  ****    0 ROOT


##########                                Name:    ZINC001179023006
##########                DOCK_Rotatable_Bonds:                   3
##########                         Heavy_Atoms:                  25
##########                    Molecular_Weight:             340.465
##########                DOCK_Rotatable_Bonds:                   3
##########                       Formal_Charge:          -0.0100005
##########                     HBond_Acceptors:                   4
##########                        HBond_Donors:                   1
##########                         Heavy_Atoms:                  25
##########                          Grid_Score:          -25.569944
##########                     Grid_vdw_energy:          -24.482796
##########                      Grid_es_energy:           -1.087149
##########           Internal_energy_repulsive:           42.951939

@<TRIPOS>MOLECULE
ZINC001179023006
 53 56 1 0 0
SMALL
USER_CHARGES


@<TRIPOS>ATOM
      1 C1         -3.5076    7.2847   50.8505 C.3     1  ZINC001179023006   -0.1500
      2 C2         -3.7938    5.7923   51.0281 C.3     1  ZINC001179023006   -0.1100
      3 C3         -2.7569    5.1833   51.9740 C.3     1  ZINC001179023006   -0.1100
      4 C4         -1.3458    5.3232   51.4639 C.2     1  ZINC001179023006    0.5400
      5 O5         -0.5225    5.9293   52.1163 O.2     1  ZINC001179023006   -0.5400
      6 N6         -0.9986    4.7746   50.2828 N.am    1  ZINC001179023006   -0.5900
      7 C7         -1.9825    4.0321   49.4835 C.3     1  ZINC001179023006    0.1000
      8 C8         -1.4177    2.6525   49.1530 C.3     1  ZINC001179023006   -0.1200
      9 C9         -0.0547    2.8141   48.4643 C.3     1  ZINC001179023006   -0.0500
     10 C10         0.9080    3.5062   49.4406 C.3     1  ZINC001179023006   -0.1100
     11 C11         0.3728    4.9020   49.7716 C.3     1  ZINC001179023006    0.0900
     12 C12         0.4940    1.4386   48.1197 C.3     1  ZINC001179023006   -0.0800
     13 C13        -0.4563    0.6635   47.2592 C.ar    1  ZINC001179023006   -0.0700
     14 C14        -1.1506   -0.4002   47.8266 C.ar    1  ZINC001179023006   -0.1100
     15 C15        -2.0798   -1.0947   47.0772 C.ar    1  ZINC001179023006   -0.1100
     16 C16        -2.3224   -0.7382   45.7640 C.ar    1  ZINC001179023006   -0.1200
     17 C17        -1.6201    0.3111   45.1982 C.ar    1  ZINC001179023006   -0.1000
     18 C18        -0.6851    0.9933   45.9563 C.ar    1  ZINC001179023006   -0.1100
     19 C19         0.1033    2.1187   45.3365 C.3     1  ZINC001179023006    0.1400
     20 N20        -0.1857    3.3850   45.9723 N.am    1  ZINC001179023006   -0.7000
     21 C21        -0.2182    3.6707   47.2485 C.2     1  ZINC001179023006    0.5200
     22 O22        -0.4174    4.8423   47.4900 O.2     1  ZINC001179023006   -0.5500
     23 C23        -3.1064    3.7589   52.4365 C.3     1  ZINC001179023006   -0.1200
     24 C24        -2.5899    4.1701   53.8273 C.3     1  ZINC001179023006   -0.1400
     25 C25        -2.9284    5.6190   53.4388 C.3     1  ZINC001179023006   -0.1300
     26 H26        -4.2686    7.7266   50.2073 H       1  ZINC001179023006    0.0600
     27 H27        -3.5242    7.7761   51.8233 H       1  ZINC001179023006    0.0500
     28 H28        -2.5262    7.4148   50.3944 H       1  ZINC001179023006    0.0600
     29 H29        -3.7393    5.2943   50.0600 H       1  ZINC001179023006    0.0700
     30 H30        -4.7908    5.6610   51.4486 H       1  ZINC001179023006    0.0700
     31 H31        -2.9057    3.9205   50.0521 H       1  ZINC001179023006    0.0900
     32 H32        -2.1842    4.5722   48.5584 H       1  ZINC001179023006    0.0800
     33 H33        -2.1022    2.1275   48.4869 H       1  ZINC001179023006    0.0800
     34 H34        -1.2951    2.0812   50.0732 H       1  ZINC001179023006    0.0800
     35 H35         1.8925    3.5933   48.9809 H       1  ZINC001179023006    0.0800
     36 H36         0.9842    2.9190   50.3557 H       1  ZINC001179023006    0.0800
     37 H37         0.3714    5.5158   48.8708 H       1  ZINC001179023006    0.1200
     38 H38         1.0039    5.3648   50.5302 H       1  ZINC001179023006    0.0800
     39 H39         1.4393    1.5553   47.5896 H       1  ZINC001179023006    0.0800
     40 H40         0.6710    0.8850   49.0419 H       1  ZINC001179023006    0.0900
     41 H41        -0.9634   -0.6824   48.8521 H       1  ZINC001179023006    0.1200
     42 H42        -2.6188   -1.9198   47.5190 H       1  ZINC001179023006    0.1200
     43 H43        -3.0566   -1.2759   45.1826 H       1  ZINC001179023006    0.1300
     44 H44        -1.8003    0.5954   44.1720 H       1  ZINC001179023006    0.1300
     45 H45        -0.1464    2.1872   44.2776 H       1  ZINC001179023006    0.0900
     46 H46         1.1675    1.9050   45.4365 H       1  ZINC001179023006    0.0800
     47 H47        -0.3820    4.1211   45.3720 H       1  ZINC001179023006    0.4000
     48 H48        -4.1744    3.5422   52.4139 H       1  ZINC001179023006    0.0900
     49 H49        -2.5062    2.9850   51.9581 H       1  ZINC001179023006    0.0800
     50 H50        -1.5232    3.9929   53.9653 H       1  ZINC001179023006    0.0800
     51 H51        -3.1926    3.7865   54.6504 H       1  ZINC001179023006    0.0700
     52 H52        -2.1846    6.3445   53.7685 H       1  ZINC001179023006    0.0700
     53 H53        -3.9477    5.9119   53.6909 H       1  ZINC001179023006    0.0900
@<TRIPOS>BOND
     1     1     2    1
     2     1    26    1
     3     1    27    1
     4     1    28    1
     5     2     3    1
     6     2    29    1
     7     2    30    1
     8     3    25    1
     9     3     4    1
    10     3    23    1
    11     4     5    2
    12     4     6   am
    13     6    11    1
    14     6     7    1
    15     7     8    1
    16     7    31    1
    17     7    32    1
    18     8     9    1
    19     8    33    1
    20     8    34    1
    21     9    21    1
    22     9    10    1
    23     9    12    1
    24    10    11    1
    25    10    35    1
    26    10    36    1
    27    11    37    1
    28    11    38    1
    29    12    13    1
    30    12    39    1
    31    12    40    1
    32    13    18   ar
    33    13    14   ar
    34    14    15   ar
    35    14    41    1
    36    15    16   ar
    37    15    42    1
    38    16    17   ar
    39    16    43    1
    40    17    18   ar
    41    17    44    1
    42    18    19    1
    43    19    20    1
    44    19    45    1
    45    19    46    1
    46    20    21   am
    47    20    47    1
    48    21    22    2
    49    23    24    1
    50    23    48    1
    51    23    49    1
    52    24    25    1
    53    24    50    1
    54    24    51    1
    55    25    52    1
    56    25    53    1
@<TRIPOS>SUBSTRUCTURE
     1 ZINC001179023006        1 TEMP              0 ****  ****    0 ROOT


##########                                Name:    ZINC000493443319
##########                DOCK_Rotatable_Bonds:                   6
##########                         Heavy_Atoms:                  25
##########                    Molecular_Weight:             348.399
##########                DOCK_Rotatable_Bonds:                   6
##########                       Formal_Charge:        -3.27826e-07
##########                     HBond_Acceptors:                   7
##########                        HBond_Donors:                   0
##########                         Heavy_Atoms:                  25
##########                          Grid_Score:          -25.519028
##########                     Grid_vdw_energy:          -25.100285
##########                      Grid_es_energy:           -0.418743
##########           Internal_energy_repulsive:           56.911259

@<TRIPOS>MOLECULE
ZINC000493443319
 49 51 1 0 0
SMALL
USER_CHARGES


@<TRIPOS>ATOM
      1 C1         -8.8698   -0.5425   61.8125 C.3     1  <0>        -0.1500
      2 C2        -10.0117   -1.5236   62.0854 C.3     1  <0>         0.0500
      3 O3        -11.2620   -0.8854   61.8185 O.3     1  <0>        -0.3200
      4 C4        -11.5256   -0.5605   60.5245 C.ar    1  <0>         0.1000
      5 C5        -10.8118   -1.1630   59.4991 C.ar    1  <0>        -0.1700
      6 C6        -11.0794   -0.8331   58.1848 C.ar    1  <0>        -0.1100
      7 C7        -12.0623    0.1003   57.8904 C.ar    1  <0>         0.0800
      8 O8        -12.3255    0.4252   56.5965 O.3     1  <0>        -0.3000
      9 C9        -13.1964   -0.4466   55.8729 C.3     1  <0>         0.1000
     10 C10       -14.1656   -1.1216   56.8455 C.3     1  <0>        -0.1800
     11 C11       -13.9879    0.3625   54.8434 C.3     1  <0>        -0.1500
     12 C12       -12.3806   -1.4981   55.1659 C.2     1  <0>         0.5100
     13 O13       -12.6847   -2.6682   55.2626 O.2     1  <0>        -0.5200
     14 N14       -11.3131   -1.1382   54.4261 N.am    1  <0>        -0.6000
     15 C15       -10.5162   -2.1602   53.7360 C.3     1  <0>         0.0700
     16 C16       -10.4693   -1.8313   52.2353 C.3     1  <0>         0.1300
     17 N17       -10.1697   -0.3982   52.1090 N.am    1  <0>        -0.6300
     18 C18        -9.1992    0.1859   51.4042 C.2     1  <0>         0.6500
     19 O19        -8.5012   -0.4128   50.6100 O.2     1  <0>        -0.5200
     20 O20        -9.0671    1.4953   51.6556 O.3     1  <0>        -0.3200
     21 C21       -10.1098    1.9199   52.5828 C.3     1  <0>         0.0500
     22 C22       -10.9394    0.6472   52.8173 C.3     1  <0>         0.0800
     23 H23       -11.9476    0.7462   52.4148 H       1  <0>         0.1100
     24 C24       -10.9456    0.2807   54.3019 C.3     1  <0>         0.1000
     25 C25       -12.7770    0.7015   58.9157 C.ar    1  <0>        -0.1800
     26 C26       -12.5120    0.3688   60.2299 C.ar    1  <0>        -0.1100
     27 H27        -7.9160   -1.0293   62.0161 H       1  <0>         0.0800
     28 H28        -8.9020   -0.2285   60.7692 H       1  <0>         0.0700
     29 H29        -8.9778    0.3292   62.4578 H       1  <0>         0.0700
     30 H30        -9.9036   -2.3954   61.4400 H       1  <0>         0.0600
     31 H31        -9.9793   -1.8376   63.1286 H       1  <0>         0.0600
     32 H32       -10.0464   -1.8896   59.7285 H       1  <0>         0.1400
     33 H33       -10.5231   -1.3015   57.3864 H       1  <0>         0.1400
     34 H34       -14.8440   -0.3753   57.2589 H       1  <0>         0.0800
     35 H35       -14.7405   -1.8819   56.3167 H       1  <0>         0.0900
     36 H36       -13.6028   -1.5885   57.6539 H       1  <0>         0.0800
     37 H37       -13.2970    0.9142   54.2059 H       1  <0>         0.0800
     38 H38       -14.5857   -0.3134   54.2320 H       1  <0>         0.0900
     39 H39       -14.6448    1.0630   55.3590 H       1  <0>         0.0900
     40 H40        -9.5038   -2.1670   54.1396 H       1  <0>         0.0800
     41 H41       -10.9742   -3.1387   53.8807 H       1  <0>         0.1300
     42 H42        -9.6876   -2.4173   51.7517 H       1  <0>         0.1100
     43 H43       -11.4341   -2.0498   51.7776 H       1  <0>         0.0800
     44 H44        -9.6711    2.2678   53.5179 H       1  <0>         0.1100
     45 H45       -10.7251    2.7001   52.1346 H       1  <0>         0.1100
     46 H46       -11.6731    0.8970   54.8301 H       1  <0>         0.1100
     47 H47        -9.9531    0.4382   54.7241 H       1  <0>         0.0800
     48 H48       -13.5427    1.4280   58.6865 H       1  <0>         0.1600
     49 H49       -13.0686    0.8370   61.0282 H       1  <0>         0.1300
@<TRIPOS>BOND
     1     1     2    1
     2     1    27    1
     3     1    28    1
     4     1    29    1
     5     2     3    1
     6     2    30    1
     7     2    31    1
     8     3     4    1
     9     4    26   ar
    10     4     5   ar
    11     5     6   ar
    12     5    32    1
    13     6     7   ar
    14     6    33    1
    15     7     8    1
    16     7    25   ar
    17     8     9    1
    18     9    10    1
    19     9    11    1
    20     9    12    1
    21    10    34    1
    22    10    35    1
    23    10    36    1
    24    11    37    1
    25    11    38    1
    26    11    39    1
    27    12    13    2
    28    12    14   am
    29    14    24    1
    30    14    15    1
    31    15    16    1
    32    15    40    1
    33    15    41    1
    34    16    17    1
    35    16    42    1
    36    16    43    1
    37    17    22    1
    38    17    18   am
    39    18    19    2
    40    18    20    1
    41    20    21    1
    42    21    22    1
    43    21    44    1
    44    21    45    1
    45    22    23    1
    46    22    24    1
    47    24    46    1
    48    24    47    1
    49    25    26   ar
    50    25    48    1
    51    26    49    1
@<TRIPOS>SUBSTRUCTURE
     1 <0>         1 TEMP              0 ****  ****    0 ROOT


##########                                Name:    ZINC001067316277
##########                DOCK_Rotatable_Bonds:                   5
##########                         Heavy_Atoms:                  24
##########                    Molecular_Weight:             345.469
##########                DOCK_Rotatable_Bonds:                   5
##########                       Formal_Charge:          -0.0200007
##########                     HBond_Acceptors:                   7
##########                        HBond_Donors:                   2
##########                         Heavy_Atoms:                  24
##########                          Grid_Score:          -25.477808
##########                     Grid_vdw_energy:          -25.380579
##########                      Grid_es_energy:           -0.097229
##########           Internal_energy_repulsive:           11.396753

@<TRIPOS>MOLECULE
ZINC001067316277
 47 49 1 0 0
SMALL
USER_CHARGES


@<TRIPOS>ATOM
      1 C1        -10.2202   -1.7639   53.8789 C.3     1  ZINC001067316277   -0.1400
      2 S2        -11.9689   -2.1594   53.6305 S.3     1  ZINC001067316277   -0.0400
      3 C3        -12.4878   -2.3184   55.3067 C.ar    1  ZINC001067316277    0.1800
      4 C4        -13.7553   -2.8207   55.6118 C.ar    1  ZINC001067316277   -0.2400
      5 C5        -14.1193   -2.9276   56.9396 C.ar    1  ZINC001067316277    0.1900
      6 N6        -13.2627   -2.5538   57.8790 N.ar    1  ZINC001067316277   -0.5600
      7 C7        -12.0664   -2.0808   57.5611 C.ar    1  ZINC001067316277    0.5100
      8 N8        -11.2006   -1.7011   58.5718 N.3     1  ZINC001067316277   -0.4600
      9 C9        -10.4177   -0.5225   58.1790 C.3     1  ZINC001067316277    0.0700
     10 C10        -9.3734   -0.2200   59.2561 C.3     1  ZINC001067316277   -0.1300
     11 C11       -10.0817    0.0358   60.5892 C.3     1  ZINC001067316277    0.1600
     12 H12       -10.7259    0.9102   60.4975 H       1  ZINC001067316277    0.0900
     13 N13        -9.0843    0.2701   61.6365 N.am    1  ZINC001067316277   -0.7200
     14 C14        -8.8236    1.5261   62.0499 C.2     1  ZINC001067316277    0.5900
     15 O15        -9.4157    2.4657   61.5523 O.2     1  ZINC001067316277   -0.5300
     16 C16        -7.8264    1.7606   63.0996 C.2     1  ZINC001067316277   -0.0600
     17 C17        -7.1065    0.7947   63.7701 C.2     1  ZINC001067316277   -0.1000
     18 C18        -6.2764    1.4579   64.6791 C.2     1  ZINC001067316277   -0.2100
     19 C19        -6.4987    2.7880   64.5508 C.2     1  ZINC001067316277    0.0300
     20 N20        -7.4345    2.9854   63.5904 N.pl3   1  ZINC001067316277   -0.5400
     21 C21       -10.9282   -1.1877   60.9514 C.3     1  ZINC001067316277   -0.0700
     22 C22       -10.0172   -2.4033   61.1335 C.3     1  ZINC001067316277   -0.1400
     23 C23       -11.6858   -0.9175   62.2530 C.3     1  ZINC001067316277   -0.1400
     24 C24       -11.9273   -1.4621   59.8252 C.3     1  ZINC001067316277    0.0800
     25 N25       -11.6766   -1.9674   56.3006 N.ar    1  ZINC001067316277   -0.5400
     26 H26       -10.1344   -0.8446   54.4583 H       1  ZINC001067316277    0.0900
     27 H27        -9.7362   -2.5790   54.4170 H       1  ZINC001067316277    0.0900
     28 H28        -9.7369   -1.6299   52.9111 H       1  ZINC001067316277    0.1000
     29 H29       -14.4352   -3.1181   54.8271 H       1  ZINC001067316277    0.1500
     30 H30       -15.0920   -3.3115   57.2096 H       1  ZINC001067316277    0.1700
     31 H31        -9.9157   -0.7192   57.2316 H       1  ZINC001067316277    0.1000
     32 H32       -11.0823    0.3340   58.0667 H       1  ZINC001067316277    0.0500
     33 H33        -8.6999   -1.0708   59.3591 H       1  ZINC001067316277    0.0800
     34 H34        -8.8029    0.6641   58.9716 H       1  ZINC001067316277    0.0800
     35 H35        -8.6116   -0.4788   62.0322 H       1  ZINC001067316277    0.3900
     36 H36        -7.1716   -0.2730   63.6215 H       1  ZINC001067316277    0.1500
     37 H37        -5.5815    0.9925   65.3624 H       1  ZINC001067316277    0.1500
     38 H38        -6.0077    3.5645   65.1186 H       1  ZINC001067316277    0.1700
     39 H39        -7.7754    3.8462   63.3012 H       1  ZINC001067316277    0.4100
     40 H40        -9.3035   -2.2060   61.9334 H       1  ZINC001067316277    0.0500
     41 H41       -10.6202   -3.2739   61.3914 H       1  ZINC001067316277    0.0600
     42 H42        -9.4788   -2.5962   60.2057 H       1  ZINC001067316277    0.0700
     43 H43       -12.3356   -0.0522   62.1221 H       1  ZINC001067316277    0.0600
     44 H44       -12.2881   -1.7888   62.5103 H       1  ZINC001067316277    0.0600
     45 H45       -10.9732   -0.7191   63.0536 H       1  ZINC001067316277    0.0600
     46 H46       -12.5849   -0.6012   59.7053 H       1  ZINC001067316277    0.0600
     47 H47       -12.5220   -2.3413   60.0736 H       1  ZINC001067316277    0.1000
@<TRIPOS>BOND
     1     1     2    1
     2     1    26    1
     3     1    27    1
     4     1    28    1
     5     2     3    1
     6     3    25   ar
     7     3     4   ar
     8     4     5   ar
     9     4    29    1
    10     5     6   ar
    11     5    30    1
    12     6     7   ar
    13     7     8    1
    14     7    25   ar
    15     8    24    1
    16     8     9    1
    17     9    10    1
    18     9    31    1
    19     9    32    1
    20    10    11    1
    21    10    33    1
    22    10    34    1
    23    11    12    1
    24    11    13    1
    25    11    21    1
    26    13    14   am
    27    13    35    1
    28    14    15    2
    29    14    16    1
    30    16    20    1
    31    16    17    2
    32    17    18    1
    33    17    36    1
    34    18    19    2
    35    18    37    1
    36    19    20    1
    37    19    38    1
    38    20    39    1
    39    21    22    1
    40    21    23    1
    41    21    24    1
    42    22    40    1
    43    22    41    1
    44    22    42    1
    45    23    43    1
    46    23    44    1
    47    23    45    1
    48    24    46    1
    49    24    47    1
@<TRIPOS>SUBSTRUCTURE
     1 ZINC001067316277        1 TEMP              0 ****  ****    0 ROOT


##########                                Name:    ZINC000794876634
##########                DOCK_Rotatable_Bonds:                   4
##########                         Heavy_Atoms:                  24
##########                    Molecular_Weight:             389.249
##########                DOCK_Rotatable_Bonds:                   4
##########                       Formal_Charge:        -4.47035e-08
##########                     HBond_Acceptors:                   5
##########                        HBond_Donors:                   0
##########                         Heavy_Atoms:                  24
##########                          Grid_Score:          -25.237600
##########                     Grid_vdw_energy:          -24.527416
##########                      Grid_es_energy:           -0.710184
##########           Internal_energy_repulsive:           55.105652

@<TRIPOS>MOLECULE
ZINC000794876634
 41 43 1 0 0
SMALL
USER_CHARGES


@<TRIPOS>ATOM
      1 C1        -14.9129    0.4909   50.4645 C.3     1  ZINC000794876634    0.0200
      2 O2        -13.9122   -0.5118   50.6523 O.3     1  ZINC000794876634   -0.3000
      3 C3        -13.2676   -0.5233   51.8475 C.ar    1  ZINC000794876634    0.1300
      4 C4        -12.2667   -1.4563   52.0848 C.ar    1  ZINC000794876634   -0.1800
      5 C5        -11.6092   -1.4739   53.2948 C.ar    1  ZINC000794876634   -0.0400
      6 C6        -10.5237   -2.4879   53.5483 C.3     1  ZINC000794876634   -0.1200
      7 C7        -11.9501   -0.5482   54.2899 C.ar    1  ZINC000794876634   -0.1000
      8 C8        -11.2522   -0.5637   55.5787 C.2     1  ZINC000794876634    0.0600
      9 C9        -11.7208   -1.3398   56.5991 C.2     1  ZINC000794876634   -0.1700
     10 C10       -12.9023   -2.2194   56.5887 C.2     1  ZINC000794876634    0.5700
     11 O11       -13.6573   -2.3931   55.6496 O.2     1  ZINC000794876634   -0.4900
     12 N12       -12.9996   -2.7965   57.7981 N.am    1  ZINC000794876634   -0.5300
     13 C13       -14.0519   -3.7427   58.1770 C.3     1  ZINC000794876634    0.0800
     14 C14       -11.9798   -2.3857   58.6425 C.ar    1  ZINC000794876634    0.3700
     15 N15       -11.7004   -2.7015   59.9010 N.ar    1  ZINC000794876634   -0.4900
     16 C16       -10.6640   -2.1899   60.5338 C.ar    1  ZINC000794876634    0.1800
     17 C17        -9.8097   -1.2935   59.9167 C.ar    1  ZINC000794876634   -0.1800
     18 Br18       -8.3309   -0.5788   60.8538 Br      1  ZINC000794876634   -0.0200
     19 C19       -10.0522   -0.9263   58.6009 C.ar    1  ZINC000794876634    0.0000
     20 C20       -11.1497   -1.4870   57.9560 C.ar    1  ZINC000794876634   -0.1400
     21 C21       -12.9606    0.3932   54.0484 C.ar    1  ZINC000794876634   -0.1400
     22 C22       -13.6095    0.4058   52.8308 C.ar    1  ZINC000794876634    0.0900
     23 O23       -14.5899    1.3177   52.5927 O.3     1  ZINC000794876634   -0.3000
     24 C24       -14.8874    2.2398   53.6432 C.3     1  ZINC000794876634    0.0200
     25 H25       -15.3482    0.3882   49.4706 H       1  ZINC000794876634    0.1000
     26 H26       -15.6927    0.3713   51.2168 H       1  ZINC000794876634    0.0600
     27 H27       -14.4612    1.4780   50.5632 H       1  ZINC000794876634    0.0600
     28 H28       -12.0033   -2.1702   51.3184 H       1  ZINC000794876634    0.1400
     29 H29        -9.5628   -2.0764   53.2391 H       1  ZINC000794876634    0.0800
     30 H30       -10.4913   -2.7275   54.6111 H       1  ZINC000794876634    0.0700
     31 H31       -10.7316   -3.3932   52.9779 H       1  ZINC000794876634    0.0700
     32 H32       -10.3674    0.0389   55.7211 H       1  ZINC000794876634    0.1500
     33 H33       -14.7250   -3.8945   57.3332 H       1  ZINC000794876634    0.0900
     34 H34       -13.6008   -4.6945   58.4578 H       1  ZINC000794876634    0.0800
     35 H35       -14.6128   -3.3431   59.0219 H       1  ZINC000794876634    0.0800
     36 H36       -10.4772   -2.4768   61.5582 H       1  ZINC000794876634    0.1800
     37 H37        -9.4048   -0.2286   58.0906 H       1  ZINC000794876634    0.1600
     38 H38       -13.2275    1.1091   54.8118 H       1  ZINC000794876634    0.1400
     39 H39       -15.2863    1.6974   54.5004 H       1  ZINC000794876634    0.0500
     40 H40       -13.9772    2.7631   53.9358 H       1  ZINC000794876634    0.0600
     41 H41       -15.6256    2.9620   53.2945 H       1  ZINC000794876634    0.1100
@<TRIPOS>BOND
     1     1     2    1
     2     1    25    1
     3     1    26    1
     4     1    27    1
     5     2     3    1
     6     3    22   ar
     7     3     4   ar
     8     4     5   ar
     9     4    28    1
    10     5     6    1
    11     5     7   ar
    12     6    29    1
    13     6    30    1
    14     6    31    1
    15     7     8    1
    16     7    21   ar
    17     8     9    2
    18     8    32    1
    19     9    20    1
    20     9    10    1
    21    10    11    2
    22    10    12   am
    23    12    13    1
    24    12    14    1
    25    13    33    1
    26    13    34    1
    27    13    35    1
    28    14    20   ar
    29    14    15   ar
    30    15    16   ar
    31    16    17   ar
    32    16    36    1
    33    17    18    1
    34    17    19   ar
    35    19    20   ar
    36    19    37    1
    37    21    22   ar
    38    21    38    1
    39    22    23    1
    40    23    24    1
    41    24    39    1
    42    24    40    1
    43    24    41    1
@<TRIPOS>SUBSTRUCTURE
     1 ZINC000794876634        1 TEMP              0 ****  ****    0 ROOT


##########                                Name:    ZINC000004040798
##########                DOCK_Rotatable_Bonds:                   3
##########                         Heavy_Atoms:                  22
##########                    Molecular_Weight:             361.151
##########                DOCK_Rotatable_Bonds:                   3
##########                       Formal_Charge:           0.0200003
##########                     HBond_Acceptors:                   6
##########                        HBond_Donors:                   1
##########                         Heavy_Atoms:                  22
##########                          Grid_Score:          -25.231895
##########                     Grid_vdw_energy:          -23.853447
##########                      Grid_es_energy:           -1.378448
##########           Internal_energy_repulsive:            2.177581

@<TRIPOS>MOLECULE
ZINC000004040798
 31 33 1 0 0
SMALL
USER_CHARGES


@<TRIPOS>ATOM
      1 O1          0.2147    2.8319   49.6644 O.2     1  ZINC000004040798   -0.4800
      2 C2         -0.9908    2.9949   49.6827 C.2     1  ZINC000004040798    0.6100
      3 N3         -1.6934    2.9587   48.5332 N.am    1  ZINC000004040798   -0.6600
      4 C4         -1.0360    2.7394   47.3185 C.ar    1  ZINC000004040798    0.2300
      5 C5         -0.2600    3.7440   46.7559 C.ar    1  ZINC000004040798   -0.1300
      6 C6          0.3881    3.5243   45.5558 C.ar    1  ZINC000004040798   -0.0100
      7 C7          0.2649    2.3057   44.9145 C.ar    1  ZINC000004040798   -0.0600
      8 N8          0.9609    2.0743   43.6288 N.pl3   1  ZINC000004040798    0.0300
      9 O9          1.6412    2.9569   43.1370 O.2     1  ZINC000004040798   -0.1500
     10 O10         0.8535    1.0012   43.0626 O.2     1  ZINC000004040798   -0.1500
     11 C11        -0.5066    1.3022   45.4717 C.ar    1  ZINC000004040798    0.0000
     12 C12        -1.1533    1.5132   46.6743 C.ar    1  ZINC000004040798   -0.1400
     13 Br13       -2.2081    0.1409   47.4357 Br      1  ZINC000004040798    0.0000
     14 C14        -1.6816    3.2254   50.9590 C.2     1  ZINC000004040798   -0.0500
     15 C15        -3.0193    3.4130   51.1010 C.2     1  ZINC000004040798   -0.0800
     16 C16        -3.2522    3.6019   52.5325 C.ar    1  ZINC000004040798   -0.1500
     17 C17        -4.3877    3.8343   53.3117 C.ar    1  ZINC000004040798   -0.0500
     18 C18        -4.2637    3.9688   54.6660 C.ar    1  ZINC000004040798   -0.1400
     19 C19        -3.0179    3.8764   55.2709 C.ar    1  ZINC000004040798   -0.0700
     20 C20        -1.8852    3.6475   54.5196 C.ar    1  ZINC000004040798   -0.1100
     21 C21        -1.9863    3.5068   53.1406 C.ar    1  ZINC000004040798    0.0800
     22 O22        -1.0833    3.2768   52.1676 O.3     1  ZINC000004040798   -0.1900
     23 H23        -2.6551    3.0847   48.5484 H       1  ZINC000004040798    0.4300
     24 H24        -0.1635    4.6965   47.2559 H       1  ZINC000004040798    0.1800
     25 H25         0.9914    4.3057   45.1178 H       1  ZINC000004040798    0.1700
     26 H26        -0.6008    0.3514   44.9682 H       1  ZINC000004040798    0.1700
     27 H27        -3.7608    3.4215   50.3158 H       1  ZINC000004040798    0.1800
     28 H28        -5.3593    3.9077   52.8461 H       1  ZINC000004040798    0.1400
     29 H29        -5.1410    4.1486   55.2697 H       1  ZINC000004040798    0.1400
     30 H30        -2.9351    3.9854   56.3421 H       1  ZINC000004040798    0.1400
     31 H31        -0.9212    3.5772   55.0014 H       1  ZINC000004040798    0.1400
@<TRIPOS>BOND
     1     1     2    2
     2     2     3   am
     3     2    14    1
     4     3     4    1
     5     3    23    1
     6     4    12   ar
     7     4     5   ar
     8     5     6   ar
     9     5    24    1
    10     6     7   ar
    11     6    25    1
    12     7     8    1
    13     7    11   ar
    14     8     9    2
    15     8    10    2
    16    11    12   ar
    17    11    26    1
    18    12    13    1
    19    14    22    1
    20    14    15    2
    21    15    16    1
    22    15    27    1
    23    16    21   ar
    24    16    17   ar
    25    17    18   ar
    26    17    28    1
    27    18    19   ar
    28    18    29    1
    29    19    20   ar
    30    19    30    1
    31    20    21   ar
    32    20    31    1
    33    21    22    1
@<TRIPOS>SUBSTRUCTURE
     1 ZINC000004040798        1 TEMP              0 ****  ****    0 ROOT


##########                                Name:    ZINC001456096501
##########                DOCK_Rotatable_Bonds:                   7
##########                         Heavy_Atoms:                  24
##########                    Molecular_Weight:             333.431
##########                DOCK_Rotatable_Bonds:                   7
##########                       Formal_Charge:          -0.0200003
##########                     HBond_Acceptors:                   6
##########                        HBond_Donors:                   0
##########                         Heavy_Atoms:                  24
##########                          Grid_Score:          -25.219574
##########                     Grid_vdw_energy:          -25.568550
##########                      Grid_es_energy:            0.348976
##########           Internal_energy_repulsive:          129.223129

@<TRIPOS>MOLECULE
ZINC001456096501
 51 52 1 0 0
SMALL
USER_CHARGES


@<TRIPOS>ATOM
      1 C1        -11.1758   -3.4871   53.6244 C.3     1  ZINC001456096501    0.0400
      2 O2        -10.4087   -2.5793   54.4177 O.3     1  ZINC001456096501   -0.2900
      3 C3        -10.7550   -1.2711   54.3629 C.ar    1  ZINC001456096501    0.3700
      4 N4        -10.5223   -0.5754   53.2630 N.ar    1  ZINC001456096501   -0.5400
      5 C5        -10.8436    0.7003   53.1664 C.ar    1  ZINC001456096501    0.1600
      6 C6        -11.4417    1.3699   54.2184 C.ar    1  ZINC001456096501   -0.2200
      7 C7        -11.7083    0.6903   55.3941 C.ar    1  ZINC001456096501   -0.0200
      8 C8        -11.3636   -0.6638   55.4717 C.ar    1  ZINC001456096501   -0.2000
      9 C9        -11.6259   -1.4362   56.7010 C.2     1  ZINC001456096501    0.5900
     10 O10       -12.4944   -2.2870   56.7107 O.2     1  ZINC001456096501   -0.5100
     11 N11       -10.9027   -1.1987   57.8133 N.am    1  ZINC001456096501   -0.6200
     12 C12       -11.0582   -1.8916   59.1007 C.3     1  ZINC001456096501    0.1000
     13 C13       -10.0394   -1.2719   60.0803 C.3     1  ZINC001456096501   -0.1200
     14 C14        -9.7568    0.1192   59.4541 C.3     1  ZINC001456096501   -0.1200
     15 H15       -10.5264    0.8380   59.7355 H       1  ZINC001456096501    0.0900
     16 C16        -8.3674    0.6254   59.8470 C.3     1  ZINC001456096501    0.1200
     17 N17        -8.1045    1.9006   59.1754 N.am    1  ZINC001456096501   -0.6200
     18 C18        -8.6635    3.1421   59.7160 C.3     1  ZINC001456096501    0.0600
     19 C19        -7.3480    1.9315   58.0604 C.2     1  ZINC001456096501    0.5200
     20 O20        -6.8852    0.9038   57.6128 O.2     1  ZINC001456096501   -0.5300
     21 C21        -7.0776    3.2433   57.3696 C.3     1  ZINC001456096501   -0.0800
     22 C22        -8.3499    3.7216   56.6670 C.3     1  ZINC001456096501   -0.1300
     23 C23        -6.6438    4.2843   58.4035 C.3     1  ZINC001456096501   -0.1500
     24 C24        -5.9645    3.0558   56.3367 C.3     1  ZINC001456096501   -0.1700
     25 C25        -9.8203   -0.2057   57.9385 C.3     1  ZINC001456096501    0.1200
     26 H26       -12.2202   -3.4474   53.9340 H       1  ZINC001456096501    0.0600
     27 H27       -11.0975   -3.2073   52.5738 H       1  ZINC001456096501    0.0600
     28 H28       -10.7950   -4.4994   53.7601 H       1  ZINC001456096501    0.1000
     29 H29       -10.6356    1.2316   52.2495 H       1  ZINC001456096501    0.1700
     30 H30       -11.6982    2.4147   54.1234 H       1  ZINC001456096501    0.1500
     31 H31       -12.1743    1.1915   56.2295 H       1  ZINC001456096501    0.1500
     32 H32       -12.0704   -1.7484   59.4788 H       1  ZINC001456096501    0.0700
     33 H33       -10.8536   -2.9549   58.9765 H       1  ZINC001456096501    0.0700
     34 H34       -10.4750   -1.1663   61.0739 H       1  ZINC001456096501    0.0900
     35 H35        -9.1288   -1.8698   60.1189 H       1  ZINC001456096501    0.0800
     36 H36        -8.3247    0.7678   60.9269 H       1  ZINC001456096501    0.0800
     37 H37        -7.6162   -0.1051   59.5468 H       1  ZINC001456096501    0.0900
     38 H38        -7.9388    3.6059   60.3851 H       1  ZINC001456096501    0.0600
     39 H39        -8.8910    3.8249   58.8973 H       1  ZINC001456096501    0.0900
     40 H40        -9.5768    2.9194   60.2678 H       1  ZINC001456096501    0.0700
     41 H41        -9.1429    3.8551   57.4028 H       1  ZINC001456096501    0.0600
     42 H42        -8.1543    4.6703   56.1674 H       1  ZINC001456096501    0.0600
     43 H43        -8.6589    2.9799   55.9305 H       1  ZINC001456096501    0.0600
     44 H44        -5.8179    3.8877   58.9940 H       1  ZINC001456096501    0.0700
     45 H45        -6.3223    5.1919   57.8925 H       1  ZINC001456096501    0.0700
     46 H46        -7.4823    4.5151   59.0606 H       1  ZINC001456096501    0.0600
     47 H47        -6.2735    2.3141   55.6001 H       1  ZINC001456096501    0.0600
     48 H48        -5.7689    4.0045   55.8370 H       1  ZINC001456096501    0.0700
     49 H49        -5.0581    2.7150   56.8372 H       1  ZINC001456096501    0.0800
     50 H50        -8.8727   -0.6250   57.6004 H       1  ZINC001456096501    0.0800
     51 H51       -10.0645    0.6906   57.3683 H       1  ZINC001456096501    0.0700
@<TRIPOS>BOND
     1     1     2    1
     2     1    26    1
     3     1    27    1
     4     1    28    1
     5     2     3    1
     6     3     8   ar
     7     3     4   ar
     8     4     5   ar
     9     5     6   ar
    10     5    29    1
    11     6     7   ar
    12     6    30    1
    13     7     8   ar
    14     7    31    1
    15     8     9    1
    16     9    10    2
    17     9    11   am
    18    11    25    1
    19    11    12    1
    20    12    13    1
    21    12    32    1
    22    12    33    1
    23    13    14    1
    24    13    34    1
    25    13    35    1
    26    14    15    1
    27    14    16    1
    28    14    25    1
    29    16    17    1
    30    16    36    1
    31    16    37    1
    32    17    18    1
    33    17    19   am
    34    18    38    1
    35    18    39    1
    36    18    40    1
    37    19    20    2
    38    19    21    1
    39    21    22    1
    40    21    23    1
    41    21    24    1
    42    22    41    1
    43    22    42    1
    44    22    43    1
    45    23    44    1
    46    23    45    1
    47    23    46    1
    48    24    47    1
    49    24    48    1
    50    24    49    1
    51    25    50    1
    52    25    51    1
@<TRIPOS>SUBSTRUCTURE
     1 ZINC001456096501        1 TEMP              0 ****  ****    0 ROOT


##########                                Name:    ZINC000364058410
##########                DOCK_Rotatable_Bonds:                   5
##########                         Heavy_Atoms:                  25
##########                    Molecular_Weight:             358.464
##########                DOCK_Rotatable_Bonds:                   5
##########                       Formal_Charge:           0.0100002
##########                     HBond_Acceptors:                   7
##########                        HBond_Donors:                   0
##########                         Heavy_Atoms:                  25
##########                          Grid_Score:          -25.205309
##########                     Grid_vdw_energy:          -25.619032
##########                      Grid_es_energy:            0.413724
##########           Internal_energy_repulsive:           61.913235

@<TRIPOS>MOLECULE
ZINC000364058410
 47 50 1 0 0
SMALL
USER_CHARGES


@<TRIPOS>ATOM
      1 C1        -10.7501   -2.8488   53.8528 C.3     1  ZINC000364058410   -0.0700
      2 C2        -11.8177   -2.4257   54.8286 C.2     1  ZINC000364058410   -0.2500
      3 C3        -12.3122   -3.1742   55.8416 C.2     1  ZINC000364058410    0.0800
      4 N4        -13.2469   -2.4382   56.4787 N.pl3   1  ZINC000364058410   -0.3600
      5 C5        -14.0354   -2.8628   57.6380 C.3     1  ZINC000364058410    0.1300
      6 C6        -13.2424   -3.7081   58.6511 C.3     1  ZINC000364058410    0.1100
      7 N7        -12.9171   -2.4292   59.3119 N.am    1  ZINC000364058410   -0.6500
      8 C8        -11.9168   -2.0058   60.1097 C.2     1  ZINC000364058410    0.5600
      9 O9        -11.0246   -2.7668   60.4191 O.2     1  ZINC000364058410   -0.5000
     10 C10       -11.9070   -0.5870   60.6173 C.3     1  ZINC000364058410    0.1400
     11 H11       -12.9137   -0.1724   60.5630 H       1  ZINC000364058410    0.0900
     12 C12       -11.4202   -0.5645   62.0697 C.3     1  ZINC000364058410   -0.1200
     13 C13       -11.2797    0.8870   62.5341 C.3     1  ZINC000364058410   -0.1200
     14 C14       -10.2431    1.6040   61.6660 C.3     1  ZINC000364058410   -0.1400
     15 C15       -10.7167    1.6061   60.2090 C.3     1  ZINC000364058410    0.1000
     16 N16       -10.9958    0.2232   59.7976 N.am    1  ZINC000364058410   -0.6000
     17 C17       -10.4229   -0.2933   58.6923 C.2     1  ZINC000364058410    0.5900
     18 O18       -10.6623   -1.4400   58.3622 O.2     1  ZINC000364058410   -0.4900
     19 C19        -9.5116    0.5260   57.8880 C.2     1  ZINC000364058410   -0.2600
     20 C20        -9.8389    1.1687   56.7274 C.2     1  ZINC000364058410   -0.0600
     21 C21        -8.7900    1.8679   56.1788 C.2     1  ZINC000364058410   -0.1400
     22 C22        -7.6429    1.8015   56.8647 C.2     1  ZINC000364058410   -0.2400
     23 S23        -7.8245    0.8454   58.2661 S.3     1  ZINC000364058410    0.2100
     24 C24       -14.1272   -1.8001   58.7481 C.3     1  ZINC000364058410    0.0900
     25 N25       -13.3295   -1.1962   55.8359 N.2     1  ZINC000364058410   -0.3000
     26 C26       -12.4682   -1.1877   54.8509 C.2     1  ZINC000364058410    0.0500
     27 H27        -9.7700   -2.5821   54.2483 H       1  ZINC000364058410    0.0600
     28 H28       -10.8006   -3.9274   53.7041 H       1  ZINC000364058410    0.0600
     29 H29       -10.9074   -2.3429   52.9002 H       1  ZINC000364058410    0.0600
     30 H30       -12.0126   -4.1805   56.0949 H       1  ZINC000364058410    0.1700
     31 H31       -14.9979   -3.2938   57.3624 H       1  ZINC000364058410    0.1300
     32 H32       -13.8648   -4.3687   59.2548 H       1  ZINC000364058410    0.1100
     33 H33       -12.3773   -4.2126   58.2206 H       1  ZINC000364058410    0.0900
     34 H34       -12.1413   -1.0809   62.7031 H       1  ZINC000364058410    0.0800
     35 H35       -10.4533   -1.0632   62.1370 H       1  ZINC000364058410    0.0800
     36 H36       -12.2413    1.3921   62.4431 H       1  ZINC000364058410    0.0700
     37 H37       -10.9570    0.9056   63.5750 H       1  ZINC000364058410    0.0800
     38 H38       -10.1265    2.6310   62.0120 H       1  ZINC000364058410    0.0800
     39 H39        -9.2874    1.0849   61.7371 H       1  ZINC000364058410    0.0700
     40 H40       -11.6252    2.2018   60.1210 H       1  ZINC000364058410    0.0800
     41 H41        -9.9383    2.0269   59.5725 H       1  ZINC000364058410    0.0900
     42 H42       -10.8233    1.1309   56.2848 H       1  ZINC000364058410    0.1500
     43 H43        -8.8848    2.4295   55.2611 H       1  ZINC000364058410    0.1500
     44 H44        -6.7257    2.2911   56.5723 H       1  ZINC000364058410    0.1700
     45 H45       -13.9687   -0.7811   58.3949 H       1  ZINC000364058410    0.0900
     46 H46       -15.0096   -1.9001   59.3802 H       1  ZINC000364058410    0.1100
     47 H47       -12.2950   -0.3689   54.1683 H       1  ZINC000364058410    0.1800
@<TRIPOS>BOND
     1     1     2    1
     2     1    27    1
     3     1    28    1
     4     1    29    1
     5     2    26    1
     6     2     3    2
     7     3     4    1
     8     3    30    1
     9     4     5    1
    10     4    25    1
    11     5    24    1
    12     5     6    1
    13     5    31    1
    14     6     7    1
    15     6    32    1
    16     6    33    1
    17     7     8   am
    18     7    24    1
    19     8     9    2
    20     8    10    1
    21    10    11    1
    22    10    16    1
    23    10    12    1
    24    12    13    1
    25    12    34    1
    26    12    35    1
    27    13    14    1
    28    13    36    1
    29    13    37    1
    30    14    15    1
    31    14    38    1
    32    14    39    1
    33    15    16    1
    34    15    40    1
    35    15    41    1
    36    16    17   am
    37    17    18    2
    38    17    19    1
    39    19    23    1
    40    19    20    2
    41    20    21    1
    42    20    42    1
    43    21    22    2
    44    21    43    1
    45    22    23    1
    46    22    44    1
    47    24    45    1
    48    24    46    1
    49    25    26    2
    50    26    47    1
@<TRIPOS>SUBSTRUCTURE
     1 ZINC000364058410        1 TEMP              0 ****  ****    0 ROOT


##########                                Name:    ZINC000482962466
##########                DOCK_Rotatable_Bonds:                   2
##########                         Heavy_Atoms:                  25
##########                    Molecular_Weight:             404.303
##########                DOCK_Rotatable_Bonds:                   2
##########                       Formal_Charge:           0.0200002
##########                     HBond_Acceptors:                   4
##########                        HBond_Donors:                   0
##########                         Heavy_Atoms:                  25
##########                          Grid_Score:          -25.200727
##########                     Grid_vdw_energy:          -24.663111
##########                      Grid_es_energy:           -0.537617
##########           Internal_energy_repulsive:            6.820448

@<TRIPOS>MOLECULE
ZINC000482962466
 47 50 1 0 0
SMALL
USER_CHARGES


@<TRIPOS>ATOM
      1 C1        -16.4558   -3.0896   54.4830 C.3     1  ZINC000482962466   -0.1400
      2 C2        -15.2471   -2.7995   55.3751 C.3     1  ZINC000482962466    0.0700
      3 H3        -14.5729   -3.6559   55.3643 H       1  ZINC000482962466    0.0700
      4 C4        -15.7202   -2.5382   56.8095 C.3     1  ZINC000482962466    0.0800
      5 N5        -14.5686   -2.0807   57.6030 N.am    1  ZINC000482962466   -0.6100
      6 C6        -14.2688   -2.6540   58.7854 C.2     1  ZINC000482962466    0.5600
      7 O7        -14.9542   -3.5633   59.2111 O.2     1  ZINC000482962466   -0.5200
      8 C8        -13.1072   -2.1773   59.5642 C.ar    1  ZINC000482962466   -0.1100
      9 C9        -11.8124   -2.6018   59.2166 C.ar    1  ZINC000482962466   -0.0700
     10 C10       -10.7295   -2.1777   59.9166 C.ar    1  ZINC000482962466   -0.1000
     11 C11       -10.8940   -1.3021   61.0055 C.ar    1  ZINC000482962466   -0.0400
     12 C12        -9.7885   -0.8498   61.7445 C.ar    1  ZINC000482962466   -0.0700
     13 C13        -9.9789   -0.0019   62.7937 C.ar    1  ZINC000482962466   -0.0800
     14 Br14       -8.4864    0.6038   63.7843 Br      1  ZINC000482962466   -0.0400
     15 C15       -11.2581    0.4265   63.1480 C.ar    1  ZINC000482962466   -0.1000
     16 C16       -12.3524    0.0091   62.4556 C.ar    1  ZINC000482962466   -0.0900
     17 C17       -12.1949   -0.8663   61.3657 C.ar    1  ZINC000482962466   -0.0500
     18 C18       -13.3014   -1.3109   60.6276 C.ar    1  ZINC000482962466   -0.0700
     19 C19       -13.7540   -0.9782   57.0673 C.3     1  ZINC000482962466    0.0700
     20 C20       -13.3791   -1.3138   55.6204 C.3     1  ZINC000482962466    0.0800
     21 C21       -12.6978   -0.1039   54.9760 C.3     1  ZINC000482962466   -0.1100
     22 C22       -12.2555   -0.4766   53.5574 C.3     1  ZINC000482962466   -0.1500
     23 C23       -11.3353   -1.6984   53.6228 C.3     1  ZINC000482962466    0.0600
     24 O24       -12.0218   -2.7777   54.2598 O.3     1  ZINC000482962466   -0.3700
     25 C25       -12.4175   -2.5038   55.6055 C.3     1  ZINC000482962466    0.0400
     26 O26       -14.5599   -1.6444   54.8874 O.3     1  ZINC000482962466   -0.3500
     27 H27       -16.1188   -3.2734   53.4629 H       1  ZINC000482962466    0.0700
     28 H28       -16.9803   -3.9692   54.8564 H       1  ZINC000482962466    0.0800
     29 H29       -17.1296   -2.2329   54.4942 H       1  ZINC000482962466    0.0700
     30 H30       -16.4928   -1.7692   56.8068 H       1  ZINC000482962466    0.0800
     31 H31       -16.1189   -3.4580   57.2378 H       1  ZINC000482962466    0.1000
     32 H32       -11.6780   -3.2743   58.3823 H       1  ZINC000482962466    0.1400
     33 H33        -9.7414   -2.5129   59.6379 H       1  ZINC000482962466    0.1400
     34 H34        -8.7919   -1.1731   61.4825 H       1  ZINC000482962466    0.1400
     35 H35       -11.3817    1.0989   63.9840 H       1  ZINC000482962466    0.1400
     36 H36       -13.3371    0.3483   62.7413 H       1  ZINC000482962466    0.1400
     37 H37       -14.2970   -0.9839   60.8887 H       1  ZINC000482962466    0.1400
     38 H38       -14.3280   -0.0518   57.0925 H       1  ZINC000482962466    0.0900
     39 H39       -12.8491   -0.8664   57.6646 H       1  ZINC000482962466    0.1000
     40 H40       -13.3993    0.7292   54.9323 H       1  ZINC000482962466    0.0800
     41 H41       -11.8271    0.1814   55.5663 H       1  ZINC000482962466    0.0800
     42 H42       -13.1314   -0.7122   52.9529 H       1  ZINC000482962466    0.0800
     43 H43       -11.7184    0.3605   53.1115 H       1  ZINC000482962466    0.0800
     44 H44       -11.0514   -1.9939   52.6128 H       1  ZINC000482962466    0.1000
     45 H45       -10.4408   -1.4493   54.1936 H       1  ZINC000482962466    0.0500
     46 H46       -11.5368   -2.2670   56.2025 H       1  ZINC000482962466    0.0600
     47 H47       -12.9155   -3.3788   56.0232 H       1  ZINC000482962466    0.1000
@<TRIPOS>BOND
     1     1     2    1
     2     1    27    1
     3     1    28    1
     4     1    29    1
     5     2     3    1
     6     2    26    1
     7     2     4    1
     8     4     5    1
     9     4    30    1
    10     4    31    1
    11     5     6   am
    12     5    19    1
    13     6     7    2
    14     6     8    1
    15     8    18   ar
    16     8     9   ar
    17     9    10   ar
    18     9    32    1
    19    10    11   ar
    20    10    33    1
    21    11    17   ar
    22    11    12   ar
    23    12    13   ar
    24    12    34    1
    25    13    14    1
    26    13    15   ar
    27    15    16   ar
    28    15    35    1
    29    16    17   ar
    30    16    36    1
    31    17    18   ar
    32    18    37    1
    33    19    20    1
    34    19    38    1
    35    19    39    1
    36    20    25    1
    37    20    21    1
    38    20    26    1
    39    21    22    1
    40    21    40    1
    41    21    41    1
    42    22    23    1
    43    22    42    1
    44    22    43    1
    45    23    24    1
    46    23    44    1
    47    23    45    1
    48    24    25    1
    49    25    46    1
    50    25    47    1
@<TRIPOS>SUBSTRUCTURE
     1 ZINC000482962466        1 TEMP              0 ****  ****    0 ROOT


##########                                Name:    ZINC000444205493
##########                DOCK_Rotatable_Bonds:                   4
##########                         Heavy_Atoms:                  24
##########                    Molecular_Weight:             415.351
##########                DOCK_Rotatable_Bonds:                   4
##########                       Formal_Charge:         -0.00999995
##########                     HBond_Acceptors:                   6
##########                        HBond_Donors:                   1
##########                         Heavy_Atoms:                  24
##########                          Grid_Score:          -25.196323
##########                     Grid_vdw_energy:          -24.229008
##########                      Grid_es_energy:           -0.967315
##########           Internal_energy_repulsive:            6.393472

@<TRIPOS>MOLECULE
ZINC000444205493
 47 49 1 0 0
SMALL
USER_CHARGES


@<TRIPOS>ATOM
      1 C1         -7.3963    5.9171   53.8856 C.3     1  ZINC000444205493   -0.1700
      2 C2         -8.1914    4.6391   53.8107 C.2     1  ZINC000444205493    0.5100
      3 O3         -8.6340    4.1400   54.8237 O.2     1  ZINC000444205493   -0.5100
      4 N4         -8.4105    4.0507   52.6182 N.am    1  ZINC000444205493   -0.6800
      5 C5         -9.1490    2.8638   52.5486 C.ar    1  ZINC000444205493    0.2300
      6 C6         -8.5942    1.6722   52.9952 C.ar    1  ZINC000444205493   -0.1400
      7 C7         -9.3258    0.5023   52.9258 C.ar    1  ZINC000444205493    0.0200
      8 C8        -10.6092    0.5169   52.4117 C.ar    1  ZINC000444205493   -0.6900
      9 S9        -11.5382   -0.9777   52.3246 S.o2    1  ZINC000444205493    2.7100
     10 O10       -12.7989   -0.6346   51.7660 O.2     1  ZINC000444205493   -0.9500
     11 O11       -10.6758   -1.9537   51.7560 O.2     1  ZINC000444205493   -0.9500
     12 N12       -11.8326   -1.4634   53.8802 N.am    1  ZINC000444205493   -1.0100
     13 C13       -10.8062   -1.7857   54.8896 C.3     1  ZINC000444205493    0.1200
     14 C14       -11.5079   -1.5719   56.2562 C.3     1  ZINC000444205493   -0.1200
     15 C15       -12.9379   -2.0546   55.9454 C.3     1  ZINC000444205493   -0.0700
     16 C16       -13.0526   -3.5721   56.1234 C.3     1  ZINC000444205493   -0.1100
     17 C17       -13.6805   -3.7361   57.5325 C.3     1  ZINC000444205493   -0.1200
     18 C18       -14.6799   -2.5538   57.6054 C.3     1  ZINC000444205493   -0.1000
     19 H19       -15.6073   -2.8060   57.0911 H       1  ZINC000444205493    0.0700
     20 C20       -14.9617   -2.1800   59.0620 C.3     1  ZINC000444205493   -0.1500
     21 C21       -13.9553   -1.3985   56.8781 C.3     1  ZINC000444205493   -0.1100
     22 C22       -13.1628   -1.6390   54.4879 C.3     1  ZINC000444205493    0.1300
     23 C23       -11.1655    1.7020   51.9662 C.ar    1  ZINC000444205493    0.0300
     24 C24       -10.4413    2.8765   52.0377 C.ar    1  ZINC000444205493   -0.1500
     25 Br25      -11.2025    4.4967   51.4283 Br      1  ZINC000444205493   -0.0300
     26 H26        -7.3248    6.2401   54.9242 H       1  ZINC000444205493    0.1000
     27 H27        -6.3957    5.7464   53.4884 H       1  ZINC000444205493    0.1000
     28 H28        -7.8934    6.6892   53.2984 H       1  ZINC000444205493    0.1000
     29 H29        -8.0565    4.4498   51.8081 H       1  ZINC000444205493    0.4200
     30 H30        -7.5915    1.6596   53.3964 H       1  ZINC000444205493    0.1600
     31 H31        -8.8945   -0.4249   53.2732 H       1  ZINC000444205493    0.1500
     32 H32       -10.4856   -2.8224   54.7863 H       1  ZINC000444205493    0.0800
     33 H33        -9.9541   -1.1131   54.7917 H       1  ZINC000444205493    0.0800
     34 H34       -11.0483   -2.1845   57.0318 H       1  ZINC000444205493    0.0900
     35 H35       -11.5031   -0.5189   56.5377 H       1  ZINC000444205493    0.0800
     36 H36       -13.7057   -3.9981   55.3618 H       1  ZINC000444205493    0.0700
     37 H37       -12.0674   -4.0369   56.0873 H       1  ZINC000444205493    0.0700
     38 H38       -14.2035   -4.6890   57.6133 H       1  ZINC000444205493    0.0700
     39 H39       -12.9189   -3.6458   58.3070 H       1  ZINC000444205493    0.0700
     40 H40       -14.0275   -1.9125   59.5557 H       1  ZINC000444205493    0.0500
     41 H41       -15.6453   -1.3316   59.0937 H       1  ZINC000444205493    0.0500
     42 H42       -15.4132   -3.0296   59.5744 H       1  ZINC000444205493    0.0500
     43 H43       -13.4451   -0.7619   57.6011 H       1  ZINC000444205493    0.0700
     44 H44       -14.6700   -0.8124   56.3004 H       1  ZINC000444205493    0.0700
     45 H45       -13.7216   -0.7039   54.4497 H       1  ZINC000444205493    0.0700
     46 H46       -13.7077   -2.4203   53.9581 H       1  ZINC000444205493    0.0800
     47 H47       -12.1684    1.7102   51.5655 H       1  ZINC000444205493    0.1500
@<TRIPOS>BOND
     1     1     2    1
     2     1    26    1
     3     1    27    1
     4     1    28    1
     5     2     3    2
     6     2     4   am
     7     4     5    1
     8     4    29    1
     9     5    24   ar
    10     5     6   ar
    11     6     7   ar
    12     6    30    1
    13     7     8   ar
    14     7    31    1
    15     8     9    1
    16     8    23   ar
    17     9    10    2
    18     9    11    2
    19     9    12   am
    20    12    22    1
    21    12    13    1
    22    13    14    1
    23    13    32    1
    24    13    33    1
    25    14    15    1
    26    14    34    1
    27    14    35    1
    28    15    21    1
    29    15    16    1
    30    15    22    1
    31    16    17    1
    32    16    36    1
    33    16    37    1
    34    17    18    1
    35    17    38    1
    36    17    39    1
    37    18    19    1
    38    18    20    1
    39    18    21    1
    40    20    40    1
    41    20    41    1
    42    20    42    1
    43    21    43    1
    44    21    44    1
    45    22    45    1
    46    22    46    1
    47    23    24   ar
    48    23    47    1
    49    24    25    1
@<TRIPOS>SUBSTRUCTURE
     1 ZINC000444205493        1 TEMP              0 ****  ****    0 ROOT


##########                                Name:    ZINC001211202056
##########                DOCK_Rotatable_Bonds:                   4
##########                         Heavy_Atoms:                  23
##########                    Molecular_Weight:             386.181
##########                DOCK_Rotatable_Bonds:                   4
##########                       Formal_Charge:           0.0199999
##########                     HBond_Acceptors:                  11
##########                        HBond_Donors:                   3
##########                         Heavy_Atoms:                  23
##########                          Grid_Score:          -25.188059
##########                     Grid_vdw_energy:          -24.188749
##########                      Grid_es_energy:           -0.999309
##########           Internal_energy_repulsive:           12.333391

@<TRIPOS>MOLECULE
ZINC001211202056
 31 32 1 0 0
SMALL
USER_CHARGES


@<TRIPOS>ATOM
      1 N1          1.1326    3.4405   42.3542 N.pl3   1  ZINC001211202056   -0.8500
      2 C2          0.9303    3.7841   43.6937 C.ar    1  ZINC001211202056    0.2900
      3 C3          1.4217    4.9858   44.1856 C.ar    1  ZINC001211202056   -0.2000
      4 C4          1.2202    5.3225   45.5103 C.ar    1  ZINC001211202056    0.0400
      5 C5          0.5305    4.4644   46.3465 C.ar    1  ZINC001211202056   -0.7300
      6 S6          0.2762    4.8984   48.0352 S.o2    1  ZINC001211202056    2.6900
      7 O7          1.1808    5.9570   48.3181 O.2     1  ZINC001211202056   -0.9400
      8 O8         -1.1292    5.0084   48.2139 O.2     1  ZINC001211202056   -0.9300
      9 N9          0.7645    3.6085   48.9517 N.am    1  ZINC001211202056   -1.0500
     10 C10         0.1486    2.3640   48.7914 C.ar    1  ZINC001211202056    0.1600
     11 C11        -1.1708    2.1722   49.1910 C.ar    1  ZINC001211202056   -0.1200
     12 C12        -1.7382    0.9206   49.0112 C.ar    1  ZINC001211202056   -0.0800
     13 C13        -0.9826   -0.0887   48.4459 C.ar    1  ZINC001211202056    0.0400
     14 C14        -1.5936   -1.4520   48.2477 C.3     1  ZINC001211202056    0.5300
     15 F15        -2.8745   -1.4750   48.8097 F       1  ZINC001211202056   -0.1700
     16 F16        -1.6798   -1.7300   46.8793 F       1  ZINC001211202056   -0.1600
     17 F17        -0.7938   -2.4165   48.8699 F       1  ZINC001211202056   -0.1700
     18 N18         0.2660    0.1240   48.0768 N.ar    1  ZINC001211202056   -0.4100
     19 C19         0.8430    1.3004   48.2251 C.ar    1  ZINC001211202056    0.1600
     20 Cl20        2.4894    1.5202   47.7199 Cl      1  ZINC001211202056    0.0000
     21 C21         0.0393    3.2661   45.8606 C.ar    1  ZINC001211202056    0.0400
     22 C22         0.2318    2.9258   44.5354 C.ar    1  ZINC001211202056   -0.1400
     23 Cl23       -0.3848    1.4218   43.9258 Cl      1  ZINC001211202056   -0.0500
     24 H24         0.7853    2.6024   42.0107 H       1  ZINC001211202056    0.4100
     25 H25         1.6166    4.0420   41.7671 H       1  ZINC001211202056    0.4100
     26 H26         1.9612    5.6566   43.5335 H       1  ZINC001211202056    0.1400
     27 H27         1.6023    6.2573   45.8933 H       1  ZINC001211202056    0.1500
     28 H28         1.4781    3.7166   49.5998 H       1  ZINC001211202056    0.4400
     29 H29        -1.7385    2.9791   49.6306 H       1  ZINC001211202056    0.2000
     30 H30        -2.7595    0.7360   49.3099 H       1  ZINC001211202056    0.1700
     31 H31        -0.4990    2.5981   46.5165 H       1  ZINC001211202056    0.1500
@<TRIPOS>BOND
     1     1     2    1
     2     1    24    1
     3     1    25    1
     4     2    22   ar
     5     2     3   ar
     6     3     4   ar
     7     3    26    1
     8     4     5   ar
     9     4    27    1
    10     5     6    1
    11     5    21   ar
    12     6     7    2
    13     6     8    2
    14     6     9   am
    15     9    10    1
    16     9    28    1
    17    10    19   ar
    18    10    11   ar
    19    11    12   ar
    20    11    29    1
    21    12    13   ar
    22    12    30    1
    23    13    14    1
    24    13    18   ar
    25    14    15    1
    26    14    16    1
    27    14    17    1
    28    18    19   ar
    29    19    20    1
    30    21    22   ar
    31    21    31    1
    32    22    23    1
@<TRIPOS>SUBSTRUCTURE
     1 ZINC001211202056        1 TEMP              0 ****  ****    0 ROOT


##########                                Name:    ZINC000345028113
##########                DOCK_Rotatable_Bonds:                   5
##########                         Heavy_Atoms:                  21
##########                    Molecular_Weight:             331.838
##########                DOCK_Rotatable_Bonds:                   5
##########                       Formal_Charge:         4.47035e-07
##########                     HBond_Acceptors:                   6
##########                        HBond_Donors:                   0
##########                         Heavy_Atoms:                  21
##########                          Grid_Score:          -25.181601
##########                     Grid_vdw_energy:          -24.199213
##########                      Grid_es_energy:           -0.982387
##########           Internal_energy_repulsive:           17.061773

@<TRIPOS>MOLECULE
ZINC000345028113
 40 41 1 0 0
SMALL
USER_CHARGES


@<TRIPOS>ATOM
      1 C1         -0.9989    1.7838   46.4473 C.3     1  ZINC000345028113   -0.1700
      2 C2         -0.8280    1.7415   47.9672 C.3     1  ZINC000345028113    0.1400
      3 H3         -0.6970    2.7550   48.3463 H       1  ZINC000345028113    0.1100
      4 C4          0.4042    0.9012   48.3194 C.3     1  ZINC000345028113   -0.0700
      5 H5          0.5498    0.9012   49.3996 H       1  ZINC000345028113    0.0900
      6 C6          1.6394    1.4905   47.6354 C.3     1  ZINC000345028113   -0.1400
      7 S7          0.1371   -0.8008   47.7408 S.3     1  ZINC000345028113   -0.2400
      8 C8         -1.4418   -1.2348   48.5292 C.3     1  ZINC000345028113   -0.1100
      9 C9         -2.4870   -0.1783   48.1558 C.3     1  ZINC000345028113    0.1000
     10 N10        -2.0173    1.1430   48.5755 N.am    1  ZINC000345028113   -0.6100
     11 C11        -2.6870    1.8158   49.5322 C.2     1  ZINC000345028113    0.5200
     12 O12        -3.6741    1.3266   50.0394 O.2     1  ZINC000345028113   -0.5300
     13 C13        -2.2094    3.1758   49.9716 C.3     1  ZINC000345028113   -0.1400
     14 C14        -2.7458    3.4767   51.3726 C.3     1  ZINC000345028113    0.0700
     15 O15        -1.8928    2.8753   52.3486 O.3     1  ZINC000345028113   -0.3000
     16 C16        -1.7866    3.5063   53.5483 C.ar    1  ZINC000345028113    0.1300
     17 C17        -2.8642    3.5249   54.4204 C.ar    1  ZINC000345028113   -0.1700
     18 C18        -2.7549    4.1662   55.6398 C.ar    1  ZINC000345028113   -0.1100
     19 C19        -1.5702    4.7901   55.9911 C.ar    1  ZINC000345028113    0.0800
     20 F20        -1.4650    5.4161   57.1837 F       1  ZINC000345028113   -0.1300
     21 C21        -0.4925    4.7727   55.1216 C.ar    1  ZINC000345028113   -0.1100
     22 C22        -0.5970    4.1276   53.9036 C.ar    1  ZINC000345028113   -0.0400
     23 Cl23        0.7538    4.1058   52.8135 Cl      1  ZINC000345028113   -0.0400
     24 H24        -1.8752    2.3815   46.1968 H       1  ZINC000345028113    0.0600
     25 H25        -0.1133    2.2295   45.9945 H       1  ZINC000345028113    0.0800
     26 H26        -1.1299    0.7703   46.0682 H       1  ZINC000345028113    0.0800
     27 H27         1.7897    2.5148   47.9767 H       1  ZINC000345028113    0.0800
     28 H28         2.5146    0.8915   47.8872 H       1  ZINC000345028113    0.0700
     29 H29         1.4938    1.4852   46.5552 H       1  ZINC000345028113    0.0700
     30 H30        -1.7692   -2.2130   48.1772 H       1  ZINC000345028113    0.1200
     31 H31        -1.3156   -1.2572   49.6117 H       1  ZINC000345028113    0.0900
     32 H32        -2.6395   -0.1837   47.0766 H       1  ZINC000345028113    0.0900
     33 H33        -3.4281   -0.4052   48.6568 H       1  ZINC000345028113    0.1000
     34 H34        -1.1195    3.1901   49.9892 H       1  ZINC000345028113    0.1100
     35 H35        -2.5714    3.9310   49.2740 H       1  ZINC000345028113    0.1100
     36 H36        -2.7716    4.5553   51.5278 H       1  ZINC000345028113    0.0800
     37 H37        -3.7529    3.0714   51.4709 H       1  ZINC000345028113    0.0800
     38 H38        -3.7890    3.0388   54.1469 H       1  ZINC000345028113    0.1500
     39 H39        -3.5945    4.1810   56.3189 H       1  ZINC000345028113    0.1500
     40 H40         0.4312    5.2601   55.3969 H       1  ZINC000345028113    0.1500
@<TRIPOS>BOND
     1     1     2    1
     2     1    24    1
     3     1    25    1
     4     1    26    1
     5     2     3    1
     6     2    10    1
     7     2     4    1
     8     4     5    1
     9     4     6    1
    10     4     7    1
    11     6    27    1
    12     6    28    1
    13     6    29    1
    14     7     8    1
    15     8     9    1
    16     8    30    1
    17     8    31    1
    18     9    10    1
    19     9    32    1
    20     9    33    1
    21    10    11   am
    22    11    12    2
    23    11    13    1
    24    13    14    1
    25    13    34    1
    26    13    35    1
    27    14    15    1
    28    14    36    1
    29    14    37    1
    30    15    16    1
    31    16    22   ar
    32    16    17   ar
    33    17    18   ar
    34    17    38    1
    35    18    19   ar
    36    18    39    1
    37    19    20    1
    38    19    21   ar
    39    21    22   ar
    40    21    40    1
    41    22    23    1
@<TRIPOS>SUBSTRUCTURE
     1 ZINC000345028113        1 TEMP              0 ****  ****    0 ROOT


##########                                Name:    ZINC000422507946
##########                DOCK_Rotatable_Bonds:                   7
##########                         Heavy_Atoms:                  25
##########                    Molecular_Weight:             364.484
##########                DOCK_Rotatable_Bonds:                   7
##########                       Formal_Charge:          0.00999952
##########                     HBond_Acceptors:                   6
##########                        HBond_Donors:                   1
##########                         Heavy_Atoms:                  25
##########                          Grid_Score:          -25.180372
##########                     Grid_vdw_energy:          -25.221455
##########                      Grid_es_energy:            0.041083
##########           Internal_energy_repulsive:           37.096134

@<TRIPOS>MOLECULE
ZINC000422507946
 50 52 1 0 0
SMALL
USER_CHARGES


@<TRIPOS>ATOM
      1 C1         -1.5263    3.1244   56.6186 C.3     1  ZINC000422507946   -0.1400
      2 C2         -1.8292    4.1144   55.4922 C.3     1  ZINC000422507946   -0.0400
      3 H3         -2.6798    4.7422   55.7577 H       1  ZINC000422507946    0.1100
      4 C4         -2.1071    3.3614   54.1746 C.3     1  ZINC000422507946   -0.1400
      5 C5         -1.5961    4.2101   52.9975 C.3     1  ZINC000422507946    0.1400
      6 H6         -2.2469    5.0718   52.8495 H       1  ZINC000422507946    0.1100
      7 N7         -1.5537    3.3999   51.7776 N.am    1  ZINC000422507946   -0.6900
      8 C8         -1.7597    3.9775   50.5775 C.2     1  ZINC000422507946    0.5100
      9 O9         -1.9787    5.1690   50.5072 O.2     1  ZINC000422507946   -0.5000
     10 C10        -1.7183    3.1507   49.3333 C.2     1  ZINC000422507946    0.5100
     11 O11        -2.4194    2.1651   49.2361 O.2     1  ZINC000422507946   -0.5200
     12 N12        -0.9021    3.4998   48.3191 N.am    1  ZINC000422507946   -0.5700
     13 C13        -0.8615    2.6893   47.0994 C.3     1  ZINC000422507946    0.1400
     14 C14        -0.7078    1.2359   47.4669 C.ar    1  ZINC000422507946   -0.0800
     15 C15         0.4732    0.7860   48.0267 C.ar    1  ZINC000422507946   -0.1100
     16 C16         0.6157   -0.5472   48.3644 C.ar    1  ZINC000422507946   -0.0900
     17 C17        -0.4228   -1.4314   48.1427 C.ar    1  ZINC000422507946   -0.1500
     18 C18        -1.6066   -0.9817   47.5824 C.ar    1  ZINC000422507946    0.1000
     19 F19        -2.6225   -1.8453   47.3652 F       1  ZINC000422507946   -0.1400
     20 C20        -1.7499    0.3544   47.2495 C.ar    1  ZINC000422507946   -0.1500
     21 C21        -0.0557    4.6898   48.4363 C.3     1  ZINC000422507946    0.1400
     22 C22         1.2604    4.4807   47.6592 C.3     1  ZINC000422507946   -0.1200
     23 C23         0.9962    5.1364   46.2810 C.3     1  ZINC000422507946   -0.1300
     24 C24         0.1578    6.3849   46.6518 C.3     1  ZINC000422507946   -0.1200
     25 C25        -0.7567    5.9005   47.7957 C.3     1  ZINC000422507946   -0.1600
     26 C26        -0.1665    4.6836   53.3701 C.3     1  ZINC000422507946   -0.0900
     27 S27        -0.3595    5.1473   55.1378 S.3     1  ZINC000422507946   -0.2700
     28 H28        -1.3043    3.6726   57.5342 H       1  ZINC000422507946    0.0700
     29 H29        -2.3919    2.4821   56.7805 H       1  ZINC000422507946    0.0700
     30 H30        -0.6667    2.5131   56.3436 H       1  ZINC000422507946    0.0700
     31 H31        -1.5899    2.4020   54.1855 H       1  ZINC000422507946    0.0900
     32 H32        -3.1789    3.1950   54.0674 H       1  ZINC000422507946    0.0900
     33 H33        -1.3774    2.4476   51.8337 H       1  ZINC000422507946    0.4100
     34 H34        -1.7874    2.8268   46.5407 H       1  ZINC000422507946    0.1100
     35 H35        -0.0167    2.9999   46.4846 H       1  ZINC000422507946    0.1000
     36 H36         1.2855    1.4764   48.2000 H       1  ZINC000422507946    0.1400
     37 H37         1.5390   -0.8976   48.8014 H       1  ZINC000422507946    0.1300
     38 H38        -0.3109   -2.4727   48.4060 H       1  ZINC000422507946    0.1400
     39 H39        -2.6729    0.7063   46.8127 H       1  ZINC000422507946    0.1400
     40 H40         0.1577    4.8940   49.4855 H       1  ZINC000422507946    0.1100
     41 H41         2.0864    4.9790   48.1667 H       1  ZINC000422507946    0.0800
     42 H42         1.4695    3.4173   47.5419 H       1  ZINC000422507946    0.0600
     43 H43         1.9329    5.4273   45.8057 H       1  ZINC000422507946    0.0700
     44 H44         0.4268    4.4660   45.6372 H       1  ZINC000422507946    0.0600
     45 H45         0.8057    7.1908   46.9965 H       1  ZINC000422507946    0.0700
     46 H46        -0.4378    6.7113   45.7992 H       1  ZINC000422507946    0.0700
     47 H47        -1.7268    5.6027   47.3976 H       1  ZINC000422507946    0.0900
     48 H48        -0.8829    6.6925   48.5338 H       1  ZINC000422507946    0.0800
     49 H49         0.5528    3.8724   53.2570 H       1  ZINC000422507946    0.1000
     50 H50         0.1243    5.5477   52.7725 H       1  ZINC000422507946    0.1100
@<TRIPOS>BOND
     1     1     2    1
     2     1    28    1
     3     1    29    1
     4     1    30    1
     5     2     3    1
     6     2    27    1
     7     2     4    1
     8     4     5    1
     9     4    31    1
    10     4    32    1
    11     5     6    1
    12     5     7    1
    13     5    26    1
    14     7     8   am
    15     7    33    1
    16     8     9    2
    17     8    10    1
    18    10    11    2
    19    10    12   am
    20    12    13    1
    21    12    21    1
    22    13    14    1
    23    13    34    1
    24    13    35    1
    25    14    20   ar
    26    14    15   ar
    27    15    16   ar
    28    15    36    1
    29    16    17   ar
    30    16    37    1
    31    17    18   ar
    32    17    38    1
    33    18    19    1
    34    18    20   ar
    35    20    39    1
    36    21    25    1
    37    21    22    1
    38    21    40    1
    39    22    23    1
    40    22    41    1
    41    22    42    1
    42    23    24    1
    43    23    43    1
    44    23    44    1
    45    24    25    1
    46    24    45    1
    47    24    46    1
    48    25    47    1
    49    25    48    1
    50    26    27    1
    51    26    49    1
    52    26    50    1
@<TRIPOS>SUBSTRUCTURE
     1 ZINC000422507946        1 TEMP              0 ****  ****    0 ROOT


##########                                Name:    ZINC000444542200
##########                DOCK_Rotatable_Bonds:                   8
##########                         Heavy_Atoms:                  28
##########                    Molecular_Weight:             404.337
##########                DOCK_Rotatable_Bonds:                   8
##########                       Formal_Charge:           0.0200001
##########                     HBond_Acceptors:                  10
##########                        HBond_Donors:                   1
##########                         Heavy_Atoms:                  28
##########                          Grid_Score:          -25.172562
##########                     Grid_vdw_energy:          -23.007650
##########                      Grid_es_energy:           -2.164910
##########           Internal_energy_repulsive:           18.671959

@<TRIPOS>MOLECULE
ZINC000444542200
 45 46 1 0 0
SMALL
USER_CHARGES


@<TRIPOS>ATOM
      1 C1         -6.8083    1.7268   57.4032 C.3     1  ZINC000444542200    0.0300
      2 O2         -5.5436    1.4468   56.7996 O.3     1  ZINC000444542200   -0.3100
      3 C3         -4.6328    2.4552   56.7798 C.ar    1  ZINC000444542200    0.1800
      4 C4         -3.3936    2.2584   56.1899 C.ar    1  ZINC000444542200   -0.1700
      5 C5         -2.4636    3.2886   56.1694 C.ar    1  ZINC000444542200    0.2300
      6 N6         -1.2128    3.0907   55.5737 N.am    1  ZINC000444542200   -0.5800
      7 C7         -0.1656    2.3621   56.2939 C.3     1  ZINC000444542200    0.0700
      8 C8         -0.9718    3.5702   54.3375 C.2     1  ZINC000444542200    0.7100
      9 O9          0.1150    3.3984   53.8199 O.2     1  ZINC000444542200   -0.5500
     10 N10        -1.9353    4.2405   53.6749 N.am    1  ZINC000444542200   -0.7300
     11 C11        -1.6738    4.7602   52.3304 C.3     1  ZINC000444542200    0.1700
     12 H12        -0.6180    5.0152   52.2384 H       1  ZINC000444542200    0.1500
     13 C13        -2.0280    3.7108   51.3085 C.ar    1  ZINC000444542200   -0.1300
     14 C14        -3.2344    3.0419   51.3945 C.ar    1  ZINC000444542200   -0.0800
     15 C15        -3.5608    2.0787   50.4579 C.ar    1  ZINC000444542200   -0.0900
     16 C16        -2.6815    1.7829   49.4334 C.ar    1  ZINC000444542200   -0.1100
     17 C17        -1.4726    2.4511   49.3444 C.ar    1  ZINC000444542200    0.0800
     18 F18        -0.6126    2.1625   48.3433 F       1  ZINC000444542200   -0.1200
     19 C19        -1.1477    3.4209   50.2804 C.ar    1  ZINC000444542200    0.1000
     20 F20         0.0317    4.0744   50.1957 F       1  ZINC000444542200   -0.1100
     21 C21        -2.5231    6.0105   52.0930 C.3     1  ZINC000444542200    0.4400
     22 F22        -2.9612    6.0314   50.7645 F       1  ZINC000444542200   -0.1600
     23 F23        -3.6297    5.9919   52.9487 F       1  ZINC000444542200   -0.1700
     24 F24        -1.7550    7.1515   52.3487 F       1  ZINC000444542200   -0.1800
     25 C25        -2.7749    4.5153   56.7394 C.ar    1  ZINC000444542200   -0.1900
     26 C26        -4.0144    4.7108   57.3290 C.ar    1  ZINC000444542200    0.1800
     27 O27        -4.3194    5.9118   57.8871 O.3     1  ZINC000444542200   -0.3100
     28 C28        -5.5985    6.0302   58.5130 C.3     1  ZINC000444542200    0.0300
     29 C29        -4.9452    3.6828   57.3445 C.ar    1  ZINC000444542200   -0.2900
     30 H30        -6.6592    2.0073   58.4458 H       1  ZINC000444542200    0.0600
     31 H31        -7.2910    2.5470   56.8717 H       1  ZINC000444542200    0.0600
     32 H32        -7.4395    0.8395   57.3523 H       1  ZINC000444542200    0.1000
     33 H33        -3.1520    1.3036   55.7468 H       1  ZINC000444542200    0.1300
     34 H34        -0.2396    1.2989   56.0651 H       1  ZINC000444542200    0.0700
     35 H35         0.8122    2.7328   55.9861 H       1  ZINC000444542200    0.0700
     36 H36        -0.2901    2.5126   57.3662 H       1  ZINC000444542200    0.0900
     37 H37        -2.8019    4.3787   54.0883 H       1  ZINC000444542200    0.4100
     38 H38        -3.9226    3.2714   52.1945 H       1  ZINC000444542200    0.1400
     39 H39        -4.5038    1.5568   50.5269 H       1  ZINC000444542200    0.1500
     40 H40        -2.9375    1.0301   48.7025 H       1  ZINC000444542200    0.1500
     41 H41        -2.0515    5.3172   56.7241 H       1  ZINC000444542200    0.1400
     42 H42        -5.6761    5.3033   59.3215 H       1  ZINC000444542200    0.0600
     43 H43        -5.7138    7.0362   58.9166 H       1  ZINC000444542200    0.1000
     44 H44        -6.3814    5.8415   57.7784 H       1  ZINC000444542200    0.0600
     45 H45        -5.9106    3.8356   57.8039 H       1  ZINC000444542200    0.1400
@<TRIPOS>BOND
     1     1     2    1
     2     1    30    1
     3     1    31    1
     4     1    32    1
     5     2     3    1
     6     3    29   ar
     7     3     4   ar
     8     4     5   ar
     9     4    33    1
    10     5     6    1
    11     5    25   ar
    12     6     7    1
    13     6     8   am
    14     7    34    1
    15     7    35    1
    16     7    36    1
    17     8     9    2
    18     8    10   am
    19    10    11    1
    20    10    37    1
    21    11    12    1
    22    11    13    1
    23    11    21    1
    24    13    19   ar
    25    13    14   ar
    26    14    15   ar
    27    14    38    1
    28    15    16   ar
    29    15    39    1
    30    16    17   ar
    31    16    40    1
    32    17    18    1
    33    17    19   ar
    34    19    20    1
    35    21    22    1
    36    21    23    1
    37    21    24    1
    38    25    26   ar
    39    25    41    1
    40    26    27    1
    41    26    29   ar
    42    27    28    1
    43    28    42    1
    44    28    43    1
    45    28    44    1
    46    29    45    1
@<TRIPOS>SUBSTRUCTURE
     1 ZINC000444542200        1 TEMP              0 ****  ****    0 ROOT


##########                                Name:    ZINC001039666729
##########                DOCK_Rotatable_Bonds:                   3
##########                         Heavy_Atoms:                  25
##########                    Molecular_Weight:             344.376
##########                DOCK_Rotatable_Bonds:                   3
##########                       Formal_Charge:          -0.0199998
##########                     HBond_Acceptors:                  10
##########                        HBond_Donors:                   2
##########                         Heavy_Atoms:                  25
##########                          Grid_Score:          -25.089855
##########                     Grid_vdw_energy:          -24.751410
##########                      Grid_es_energy:           -0.338446
##########           Internal_energy_repulsive:           33.868652

@<TRIPOS>MOLECULE
ZINC001039666729
 45 47 1 0 0
SMALL
USER_CHARGES


@<TRIPOS>ATOM
      1 C1        -17.7087   -2.9830   58.7648 C.3     1  ZINC001039666729   -0.1100
      2 C2        -16.8145   -2.8532   57.5587 C.ar    1  ZINC001039666729    0.2200
      3 C3        -17.3367   -2.4561   56.3380 C.ar    1  ZINC001039666729   -0.3000
      4 C4        -16.4797   -2.3494   55.2537 C.ar    1  ZINC001039666729    0.1900
      5 N5        -15.1969   -2.6283   55.4153 N.ar    1  ZINC001039666729   -0.5800
      6 C6        -14.7294   -3.0055   56.5965 C.ar    1  ZINC001039666729    0.6000
      7 N7        -13.3813   -3.2892   56.7303 N.pl3   1  ZINC001039666729   -0.5900
      8 C8        -12.5182   -3.7685   55.6078 C.3     1  ZINC001039666729    0.1200
      9 C9        -12.1171   -2.5510   54.7719 C.3     1  ZINC001039666729    0.0900
     10 N10       -11.3164   -1.6393   55.6266 N.am    1  ZINC001039666729   -0.7400
     11 C11       -12.0267   -0.6011   56.1693 C.2     1  ZINC001039666729    0.5200
     12 O12       -13.2117   -0.4756   55.9439 O.2     1  ZINC001039666729   -0.5200
     13 C13       -11.3023    0.3813   57.0532 C.3     1  ZINC001039666729   -0.1500
     14 C14       -11.9208    0.3610   58.4525 C.3     1  ZINC001039666729    0.1100
     15 N15       -11.8651   -1.0311   58.9689 N.am    1  ZINC001039666729   -0.6100
     16 C16       -10.8040   -1.5147   59.6446 C.2     1  ZINC001039666729    0.6100
     17 O17       -10.8096   -2.6627   60.0442 O.2     1  ZINC001039666729   -0.5200
     18 C18        -9.6333   -0.6491   59.8997 C.2     1  ZINC001039666729   -0.0400
     19 N19        -9.2999    0.4585   59.2548 N.2     1  ZINC001039666729   -0.2500
     20 N20        -8.2175    0.9220   59.7715 N.pl3   1  ZINC001039666729   -0.2300
     21 N21        -7.8079    0.1761   60.7346 N.2     1  ZINC001039666729   -0.2800
     22 C22        -8.6408   -0.8257   60.8844 C.2     1  ZINC001039666729    0.0400
     23 C23       -13.0730   -1.8474   58.6814 C.3     1  ZINC001039666729    0.1100
     24 C24       -12.6256   -3.1442   58.0119 C.3     1  ZINC001039666729    0.1300
     25 N25       -15.5206   -3.1120   57.6536 N.ar    1  ZINC001039666729   -0.5700
     26 H26       -17.7451   -2.0309   59.2942 H       1  ZINC001039666729    0.0800
     27 H27       -18.7133   -3.2592   58.4444 H       1  ZINC001039666729    0.0800
     28 H28       -17.3144   -3.7527   59.4283 H       1  ZINC001039666729    0.0800
     29 H29       -18.3886   -2.2348   56.2337 H       1  ZINC001039666729    0.1400
     30 H30       -16.8548   -2.0428   54.2886 H       1  ZINC001039666729    0.1600
     31 H31       -11.6266   -4.2512   56.0079 H       1  ZINC001039666729    0.0800
     32 H32       -13.0744   -4.4734   54.9897 H       1  ZINC001039666729    0.0900
     33 H33       -11.5206   -2.8722   53.9182 H       1  ZINC001039666729    0.0800
     34 H34       -13.0114   -2.0352   54.4221 H       1  ZINC001039666729    0.1000
     35 H35       -10.3684   -1.7679   55.7875 H       1  ZINC001039666729    0.4100
     36 H36       -10.2498    0.1049   57.1171 H       1  ZINC001039666729    0.0800
     37 H37       -11.3900    1.3826   56.6316 H       1  ZINC001039666729    0.1100
     38 H38       -11.3573    1.0204   59.1126 H       1  ZINC001039666729    0.1100
     39 H39       -12.9580    0.6921   58.4003 H       1  ZINC001039666729    0.0900
     40 H40        -7.7687    1.7285   59.4732 H       1  ZINC001039666729    0.4700
     41 H41        -8.5755   -1.6249   61.6078 H       1  ZINC001039666729    0.2100
     42 H42       -13.5945   -2.0721   59.6119 H       1  ZINC001039666729    0.0800
     43 H43       -13.7357   -1.2992   58.0117 H       1  ZINC001039666729    0.1200
     44 H44       -12.8458   -3.9903   58.6627 H       1  ZINC001039666729    0.0700
     45 H45       -11.5557   -3.1037   57.8076 H       1  ZINC001039666729    0.0900
@<TRIPOS>BOND
     1     1     2    1
     2     1    26    1
     3     1    27    1
     4     1    28    1
     5     2    25   ar
     6     2     3   ar
     7     3     4   ar
     8     3    29    1
     9     4     5   ar
    10     4    30    1
    11     5     6   ar
    12     6     7    1
    13     6    25   ar
    14     7    24    1
    15     7     8    1
    16     8     9    1
    17     8    31    1
    18     8    32    1
    19     9    10    1
    20     9    33    1
    21     9    34    1
    22    10    11   am
    23    10    35    1
    24    11    12    2
    25    11    13    1
    26    13    14    1
    27    13    36    1
    28    13    37    1
    29    14    15    1
    30    14    38    1
    31    14    39    1
    32    15    16   am
    33    15    23    1
    34    16    17    2
    35    16    18    1
    36    18    22    1
    37    18    19    2
    38    19    20    1
    39    20    21    1
    40    20    40    1
    41    21    22    2
    42    22    41    1
    43    23    24    1
    44    23    42    1
    45    23    43    1
    46    24    44    1
    47    24    45    1
@<TRIPOS>SUBSTRUCTURE
     1 ZINC001039666729        1 TEMP              0 ****  ****    0 ROOT


##########                                Name:    ZINC000481838178
##########                DOCK_Rotatable_Bonds:                   6
##########                         Heavy_Atoms:                  29
##########                    Molecular_Weight:             408.524
##########                DOCK_Rotatable_Bonds:                   6
##########                       Formal_Charge:         -0.00999962
##########                     HBond_Acceptors:                   7
##########                        HBond_Donors:                   0
##########                         Heavy_Atoms:                  29
##########                          Grid_Score:          -25.032431
##########                     Grid_vdw_energy:          -25.321121
##########                      Grid_es_energy:            0.288690
##########           Internal_energy_repulsive:            6.738423

@<TRIPOS>MOLECULE
ZINC000481838178
 53 57 1 0 0
SMALL
USER_CHARGES


@<TRIPOS>ATOM
      1 O1        -12.8136   -3.6259   57.6623 O.2     1  ZINC000481838178   -0.5200
      2 C2        -12.6414   -2.4351   57.5094 C.2     1  ZINC000481838178    0.5500
      3 C3        -12.8425   -1.4901   58.6660 C.3     1  ZINC000481838178   -0.1500
      4 S4        -13.1174   -2.4410   60.1813 S.3     1  ZINC000481838178    0.1000
      5 C5        -11.9325   -1.6794   61.2398 C.2     1  ZINC000481838178    0.1600
      6 N6        -10.9707   -2.2871   61.8975 N.2     1  ZINC000481838178   -0.2800
      7 N7        -10.2887   -1.4344   62.5748 N.2     1  ZINC000481838178   -0.2500
      8 C8        -10.7721   -0.2248   62.3925 C.2     1  ZINC000481838178    0.2700
      9 C9        -10.2678    1.0190   62.9940 C.2     1  ZINC000481838178    0.0300
     10 C10        -9.1034    1.1573   63.6889 C.2     1  ZINC000481838178   -0.1300
     11 C11        -9.0218    2.5082   64.0780 C.2     1  ZINC000481838178   -0.2100
     12 C12       -10.1257    3.1229   63.6084 C.2     1  ZINC000481838178   -0.0100
     13 O13       -10.8733    2.2222   62.9492 O.3     1  ZINC000481838178   -0.1700
     14 N14       -11.8385   -0.3437   61.5254 N.pl3   1  ZINC000481838178   -0.4100
     15 C15       -12.6592    0.6859   61.0447 C.ar    1  ZINC000481838178    0.1000
     16 C16       -12.1674    1.5896   60.1125 C.ar    1  ZINC000481838178   -0.0800
     17 C17       -12.9785    2.6032   59.6408 C.ar    1  ZINC000481838178   -0.1100
     18 C18       -14.2792    2.7183   60.0958 C.ar    1  ZINC000481838178   -0.1000
     19 C19       -14.7718    1.8196   61.0243 C.ar    1  ZINC000481838178   -0.1100
     20 C20       -13.9673    0.8005   61.4954 C.ar    1  ZINC000481838178   -0.0900
     21 N21       -12.2647   -1.9575   56.3067 N.am    1  ZINC000481838178   -0.6200
     22 C22       -12.0063   -0.5302   55.9776 C.3     1  ZINC000481838178    0.1000
     23 C23       -11.0346   -0.6151   54.7946 C.3     1  ZINC000481838178   -0.1100
     24 H24       -10.0368   -0.9003   55.1282 H       1  ZINC000481838178    0.0900
     25 C25       -10.9760    0.5987   53.8865 C.3     1  ZINC000481838178   -0.1100
     26 C26       -10.0380    0.2457   52.7202 C.3     1  ZINC000481838178   -0.1200
     27 C27       -10.5155   -0.9926   51.9686 C.3     1  ZINC000481838178   -0.1200
     28 C28       -10.7220   -2.1862   52.9166 C.3     1  ZINC000481838178   -0.1000
     29 C29       -11.7066   -1.7626   53.9820 C.3     1  ZINC000481838178   -0.1100
     30 H30       -12.6177   -1.3844   53.5184 H       1  ZINC000481838178    0.0900
     31 C31       -12.0304   -2.7662   55.0845 C.3     1  ZINC000481838178    0.1200
     32 H32       -11.9562   -0.8666   58.7841 H       1  ZINC000481838178    0.1300
     33 H33       -13.7086   -0.8574   58.4719 H       1  ZINC000481838178    0.1300
     34 H34        -8.3831    0.3809   63.9004 H       1  ZINC000481838178    0.1600
     35 H35        -8.2251    2.9655   64.6458 H       1  ZINC000481838178    0.1600
     36 H36       -10.3669    4.1677   63.7369 H       1  ZINC000481838178    0.2100
     37 H37       -11.1515    1.5005   59.7569 H       1  ZINC000481838178    0.1300
     38 H38       -12.5964    3.3067   58.9158 H       1  ZINC000481838178    0.1400
     39 H39       -14.9114    3.5118   59.7258 H       1  ZINC000481838178    0.1300
     40 H40       -15.7880    1.9123   61.3782 H       1  ZINC000481838178    0.1400
     41 H41       -14.3527    0.0990   62.2205 H       1  ZINC000481838178    0.1300
     42 H42       -12.9288   -0.0299   55.6828 H       1  ZINC000481838178    0.0800
     43 H43       -11.5422   -0.0186   56.8209 H       1  ZINC000481838178    0.0800
     44 H44       -11.9719    0.8268   53.5064 H       1  ZINC000481838178    0.0700
     45 H45       -10.5816    1.4543   54.4348 H       1  ZINC000481838178    0.0700
     46 H46        -9.9973    1.0877   52.0291 H       1  ZINC000481838178    0.0600
     47 H47        -9.0378    0.0602   53.1120 H       1  ZINC000481838178    0.0600
     48 H48       -11.4588   -0.7655   51.4717 H       1  ZINC000481838178    0.0600
     49 H49        -9.7738   -1.2602   51.2159 H       1  ZINC000481838178    0.0700
     50 H50       -11.1180   -3.0370   52.3622 H       1  ZINC000481838178    0.0700
     51 H51        -9.7760   -2.4554   53.3865 H       1  ZINC000481838178    0.0700
     52 H52       -11.1950   -3.4515   55.2269 H       1  ZINC000481838178    0.0700
     53 H53       -12.9348   -3.3209   54.8347 H       1  ZINC000481838178    0.0700
@<TRIPOS>BOND
     1     1     2    2
     2     2     3    1
     3     2    21   am
     4     3     4    1
     5     3    32    1
     6     3    33    1
     7     4     5    1
     8     5    14    1
     9     5     6    2
    10     6     7    1
    11     7     8    2
    12     8     9    1
    13     8    14    1
    14     9    13    1
    15     9    10    2
    16    10    11    1
    17    10    34    1
    18    11    12    2
    19    11    35    1
    20    12    13    1
    21    12    36    1
    22    14    15    1
    23    15    20   ar
    24    15    16   ar
    25    16    17   ar
    26    16    37    1
    27    17    18   ar
    28    17    38    1
    29    18    19   ar
    30    18    39    1
    31    19    20   ar
    32    19    40    1
    33    20    41    1
    34    21    31    1
    35    21    22    1
    36    22    23    1
    37    22    42    1
    38    22    43    1
    39    23    24    1
    40    23    29    1
    41    23    25    1
    42    25    26    1
    43    25    44    1
    44    25    45    1
    45    26    27    1
    46    26    46    1
    47    26    47    1
    48    27    28    1
    49    27    48    1
    50    27    49    1
    51    28    29    1
    52    28    50    1
    53    28    51    1
    54    29    30    1
    55    29    31    1
    56    31    52    1
    57    31    53    1
@<TRIPOS>SUBSTRUCTURE
     1 ZINC000481838178        1 TEMP              0 ****  ****    0 ROOT


##########                                Name:    ZINC000154446008
##########                DOCK_Rotatable_Bonds:                   5
##########                         Heavy_Atoms:                  24
##########                    Molecular_Weight:              349.41
##########                DOCK_Rotatable_Bonds:                   5
##########                       Formal_Charge:          -0.0199999
##########                     HBond_Acceptors:                   8
##########                        HBond_Donors:                   0
##########                         Heavy_Atoms:                  24
##########                          Grid_Score:          -24.918941
##########                     Grid_vdw_energy:          -24.376654
##########                      Grid_es_energy:           -0.542288
##########           Internal_energy_repulsive:           13.208022

@<TRIPOS>MOLECULE
ZINC000154446008
 43 45 1 0 0
SMALL
USER_CHARGES


@<TRIPOS>ATOM
      1 O1        -13.8727   -2.5219   60.8113 O.2     1  ZINC000154446008   -0.5000
      2 C2        -12.9156   -2.1576   60.1538 C.2     1  ZINC000154446008    0.5900
      3 C3        -11.7382   -1.5957   60.8223 C.2     1  ZINC000154446008   -0.2300
      4 C4        -10.6038   -2.2867   61.1432 C.2     1  ZINC000154446008   -0.0600
      5 C5         -9.6537   -1.5126   61.7662 C.2     1  ZINC000154446008   -0.0500
      6 C6         -9.9961   -0.2321   61.9500 C.2     1  ZINC000154446008   -0.2100
      7 N7         -9.1338    0.7823   62.5970 N.pl3   1  ZINC000154446008    0.0500
      8 O8         -9.4850    1.9481   62.6305 O.2     1  ZINC000154446008   -0.1300
      9 O9         -8.0731    0.4511   63.0958 O.2     1  ZINC000154446008   -0.1500
     10 S10       -11.5564    0.0770   61.3326 S.3     1  ZINC000154446008    0.3500
     11 N11       -12.9360   -2.2759   58.8113 N.am    1  ZINC000154446008   -0.6100
     12 C12       -14.1120   -2.8317   58.1273 C.3     1  ZINC000154446008    0.0800
     13 C13       -14.5927   -1.8205   57.0792 C.3     1  ZINC000154446008    0.0900
     14 N14       -13.4396   -1.3955   56.2732 N.am    1  ZINC000154446008   -0.6100
     15 C15       -13.4604   -1.5130   54.9306 C.2     1  ZINC000154446008    0.5500
     16 O16       -14.4395   -1.9739   54.3758 O.2     1  ZINC000154446008   -0.5300
     17 C17       -12.2989   -1.0835   54.1367 C.2     1  ZINC000154446008   -0.1500
     18 C18       -12.1929    0.1923   53.8338 C.2     1  ZINC000154446008   -0.1100
     19 C19       -11.0676    0.7674   53.0241 C.3     1  ZINC000154446008   -0.1000
     20 C20        -9.8949   -0.2146   52.9802 C.3     1  ZINC000154446008   -0.1200
     21 C21       -10.4305   -1.5949   52.5805 C.3     1  ZINC000154446008   -0.1200
     22 C22       -11.3002   -2.1252   53.7241 C.3     1  ZINC000154446008   -0.0700
     23 C23       -12.2635   -0.8397   56.9572 C.3     1  ZINC000154446008    0.1000
     24 C24       -11.7851   -1.8457   58.0049 C.3     1  ZINC000154446008    0.1000
     25 H25       -10.4672   -3.3363   60.9288 H       1  ZINC000154446008    0.1800
     26 H26        -8.7008   -1.9091   62.0844 H       1  ZINC000154446008    0.1800
     27 H27       -13.8418   -3.7667   57.6366 H       1  ZINC000154446008    0.0900
     28 H28       -14.9056   -3.0122   58.8524 H       1  ZINC000154446008    0.0900
     29 H29       -15.3373   -2.2876   56.4346 H       1  ZINC000154446008    0.1100
     30 H30       -15.0287   -0.9552   57.5786 H       1  ZINC000154446008    0.0800
     31 H31       -12.9602    0.8648   54.1881 H       1  ZINC000154446008    0.1100
     32 H32       -11.4148    0.9609   52.0092 H       1  ZINC000154446008    0.0900
     33 H33       -10.7386    1.7031   53.4760 H       1  ZINC000154446008    0.0800
     34 H34        -9.1633    0.1213   52.2453 H       1  ZINC000154446008    0.0700
     35 H35        -9.4294   -0.2732   53.9641 H       1  ZINC000154446008    0.0700
     36 H36       -11.0271   -1.5074   51.6726 H       1  ZINC000154446008    0.0700
     37 H37        -9.5966   -2.2759   52.4098 H       1  ZINC000154446008    0.0700
     38 H38       -10.6653   -2.3810   54.5723 H       1  ZINC000154446008    0.0800
     39 H39       -11.8311   -3.0169   53.3909 H       1  ZINC000154446008    0.0700
     40 H40       -11.4700   -0.6592   56.2322 H       1  ZINC000154446008    0.1100
     41 H41       -12.5337    0.0953   57.4480 H       1  ZINC000154446008    0.0800
     42 H42       -11.0406   -1.3774   58.6487 H       1  ZINC000154446008    0.1100
     43 H43       -11.3492   -2.7123   57.5078 H       1  ZINC000154446008    0.0800
@<TRIPOS>BOND
     1     1     2    2
     2     2     3    1
     3     2    11   am
     4     3    10    1
     5     3     4    2
     6     4     5    1
     7     4    25    1
     8     5     6    2
     9     5    26    1
    10     6     7    1
    11     6    10    1
    12     7     8    2
    13     7     9    2
    14    11    24    1
    15    11    12    1
    16    12    13    1
    17    12    27    1
    18    12    28    1
    19    13    14    1
    20    13    29    1
    21    13    30    1
    22    14    15   am
    23    14    23    1
    24    15    16    2
    25    15    17    1
    26    17    22    1
    27    17    18    2
    28    18    19    1
    29    18    31    1
    30    19    20    1
    31    19    32    1
    32    19    33    1
    33    20    21    1
    34    20    34    1
    35    20    35    1
    36    21    22    1
    37    21    36    1
    38    21    37    1
    39    22    38    1
    40    22    39    1
    41    23    24    1
    42    23    40    1
    43    23    41    1
    44    24    42    1
    45    24    43    1
@<TRIPOS>SUBSTRUCTURE
     1 ZINC000154446008        1 TEMP              0 ****  ****    0 ROOT


##########                                Name:    ZINC000820901229
##########                DOCK_Rotatable_Bonds:                   3
##########                         Heavy_Atoms:                  18
##########                    Molecular_Weight:             331.233
##########                DOCK_Rotatable_Bonds:                   3
##########                       Formal_Charge:           0.0099999
##########                     HBond_Acceptors:                   5
##########                        HBond_Donors:                   1
##########                         Heavy_Atoms:                  18
##########                          Grid_Score:          -24.852989
##########                     Grid_vdw_energy:          -22.775244
##########                      Grid_es_energy:           -2.077746
##########           Internal_energy_repulsive:            3.524882

@<TRIPOS>MOLECULE
ZINC000820901229
 33 35 1 0 0
SMALL
USER_CHARGES


@<TRIPOS>ATOM
      1 O1          2.0106    0.3745   44.6582 O.2     1  ZINC000820901229   -0.5300
      2 C2          1.2059    1.0332   44.0272 C.2     1  ZINC000820901229    0.6000
      3 N3          0.0368    1.3920   44.5937 N.am    1  ZINC000820901229   -0.7100
      4 C4         -0.2673    0.9836   45.9674 C.3     1  ZINC000820901229    0.1600
      5 H5          0.5323    0.3502   46.3514 H       1  ZINC000820901229    0.1000
      6 C6         -1.6015    0.2210   46.0030 C.3     1  ZINC000820901229   -0.1300
      7 C7         -1.9856   -0.1668   47.4277 C.3     1  ZINC000820901229   -0.1100
      8 C8         -2.0125    1.0594   48.3551 C.3     1  ZINC000820901229   -0.1100
      9 C9         -0.6399    1.6977   48.2996 C.3     1  ZINC000820901229    0.0800
     10 H10         0.1202    0.9553   48.5427 H       1  ZINC000820901229    0.0700
     11 O11        -0.4272    2.8726   49.0739 O.3     1  ZINC000820901229   -0.3700
     12 C12         0.7597    3.4891   48.5128 C.3     1  ZINC000820901229    0.0500
     13 C13         0.8383    3.0563   47.0258 C.3     1  ZINC000820901229   -0.1500
     14 C14        -0.4232    2.2104   46.8487 C.3     1  ZINC000820901229   -0.1400
     15 H15        -1.2596    2.8260   46.5178 H       1  ZINC000820901229    0.0900
     16 C16         1.5115    1.4436   42.6465 C.2     1  ZINC000820901229    0.0100
     17 C17         1.0201    2.5706   42.0847 C.2     1  ZINC000820901229   -0.2200
     18 S18         1.6041    2.6893   40.4826 S.3     1  ZINC000820901229    0.3100
     19 C19         2.4709    1.2279   40.6541 C.2     1  ZINC000820901229   -0.0100
     20 Br20        3.5335    0.4409   39.3023 Br      1  ZINC000820901229    0.0700
     21 N21         2.3052    0.7398   41.8338 N.2     1  ZINC000820901229   -0.4100
     22 H22        -0.6032    1.9207   44.0919 H       1  ZINC000820901229    0.4100
     23 H23        -2.3841    0.8524   45.5824 H       1  ZINC000820901229    0.0700
     24 H24        -1.5116   -0.6824   45.3998 H       1  ZINC000820901229    0.0700
     25 H25        -2.9733   -0.6280   47.4177 H       1  ZINC000820901229    0.0800
     26 H26        -1.2613   -0.8864   47.8091 H       1  ZINC000820901229    0.0700
     27 H27        -2.7652    1.7685   48.0103 H       1  ZINC000820901229    0.0700
     28 H28        -2.2354    0.7477   49.3755 H       1  ZINC000820901229    0.0800
     29 H29         0.6815    4.5742   48.5800 H       1  ZINC000820901229    0.0900
     30 H30         1.6450    3.1443   49.0470 H       1  ZINC000820901229    0.0600
     31 H31         0.8110    3.9262   46.3694 H       1  ZINC000820901229    0.0800
     32 H32         1.7346    2.4632   46.8440 H       1  ZINC000820901229    0.0800
     33 H33         0.3649    3.2797   42.5688 H       1  ZINC000820901229    0.2000
@<TRIPOS>BOND
     1     1     2    2
     2     2     3   am
     3     2    16    1
     4     3     4    1
     5     3    22    1
     6     4     5    1
     7     4    14    1
     8     4     6    1
     9     6     7    1
    10     6    23    1
    11     6    24    1
    12     7     8    1
    13     7    25    1
    14     7    26    1
    15     8     9    1
    16     8    27    1
    17     8    28    1
    18     9    10    1
    19     9    14    1
    20     9    11    1
    21    11    12    1
    22    12    13    1
    23    12    29    1
    24    12    30    1
    25    13    14    1
    26    13    31    1
    27    13    32    1
    28    14    15    1
    29    16    21    1
    30    16    17    2
    31    17    18    1
    32    17    33    1
    33    18    19    1
    34    19    20    1
    35    19    21    2
@<TRIPOS>SUBSTRUCTURE
     1 ZINC000820901229        1 TEMP              0 ****  ****    0 ROOT


##########                                Name:    ZINC000950547210
##########                DOCK_Rotatable_Bonds:                   5
##########                         Heavy_Atoms:                  25
##########                    Molecular_Weight:              346.47
##########                DOCK_Rotatable_Bonds:                   5
##########                       Formal_Charge:         5.58794e-07
##########                     HBond_Acceptors:                   5
##########                        HBond_Donors:                   1
##########                         Heavy_Atoms:                  25
##########                          Grid_Score:          -24.773891
##########                     Grid_vdw_energy:          -24.208426
##########                      Grid_es_energy:           -0.565466
##########           Internal_energy_repulsive:           17.487431

@<TRIPOS>MOLECULE
ZINC000950547210
 55 58 1 0 0
SMALL
USER_CHARGES


@<TRIPOS>ATOM
      1 O1        -12.4097   -1.1852   56.0548 O.2     1  ZINC000950547210   -0.5200
      2 C2        -11.7737   -0.1661   56.2222 C.2     1  ZINC000950547210    0.5200
      3 N3        -11.2323    0.1001   57.4273 N.am    1  ZINC000950547210   -0.7300
      4 C4        -11.4169   -0.8386   58.5368 C.3     1  ZINC000950547210    0.1300
      5 H5        -11.5926   -1.8391   58.1414 H       1  ZINC000950547210    0.0900
      6 C6        -10.1613   -0.8484   59.4119 C.3     1  ZINC000950547210   -0.1300
      7 C7        -10.3403   -1.8529   60.5525 C.3     1  ZINC000950547210   -0.1300
      8 C8        -11.5304   -1.4288   61.4190 C.3     1  ZINC000950547210    0.1000
      9 N9        -12.7114   -1.2764   60.5584 N.am    1  ZINC000950547210   -0.6100
     10 C10       -13.8578   -1.9249   60.8443 C.2     1  ZINC000950547210    0.5600
     11 O11       -13.9215   -2.6445   61.8227 O.2     1  ZINC000950547210   -0.5200
     12 C12       -15.0318   -1.7622   59.9732 C.2     1  ZINC000950547210   -0.1400
     13 C13       -15.7761   -0.6786   60.1015 C.2     1  ZINC000950547210   -0.1500
     14 C14       -16.9977   -0.4320   59.2618 C.3     1  ZINC000950547210    0.0900
     15 O15       -16.9997   -1.3044   58.1301 O.3     1  ZINC000950547210   -0.3700
     16 C16       -16.7862   -2.6776   58.4785 C.3     1  ZINC000950547210    0.0600
     17 C17       -15.3403   -2.8327   58.9625 C.3     1  ZINC000950547210   -0.1100
     18 C18       -12.6196   -0.4036   59.3799 C.3     1  ZINC000950547210    0.1000
     19 C19       -11.5838    0.7995   55.0809 C.3     1  ZINC000950547210   -0.1000
     20 H20       -11.4304    1.8036   55.4761 H       1  ZINC000950547210    0.1000
     21 C21       -12.8275    0.7867   54.1897 C.3     1  ZINC000950547210   -0.1100
     22 C22       -12.4355    0.3619   52.7731 C.3     1  ZINC000950547210   -0.0900
     23 C23       -11.4136    1.3507   52.2085 C.3     1  ZINC000950547210   -0.1100
     24 C24       -10.1701    1.3634   53.0995 C.3     1  ZINC000950547210   -0.1100
     25 C25       -10.3628    0.3830   54.2583 C.3     1  ZINC000950547210   -0.0600
     26 C26       -10.5782   -1.0264   53.7034 C.3     1  ZINC000950547210   -0.1300
     27 C27       -11.8219   -1.0391   52.8123 C.3     1  ZINC000950547210   -0.1200
     28 H28       -10.7203    0.9133   57.5600 H       1  ZINC000950547210    0.4000
     29 H29        -9.3001   -1.1342   58.8080 H       1  ZINC000950547210    0.0800
     30 H30        -9.9999    0.1467   59.8263 H       1  ZINC000950547210    0.0700
     31 H31       -10.5265   -2.8439   60.1386 H       1  ZINC000950547210    0.0700
     32 H32        -9.4368   -1.8764   61.1617 H       1  ZINC000950547210    0.0900
     33 H33       -11.7237   -2.1919   62.1729 H       1  ZINC000950547210    0.0900
     34 H34       -11.3079   -0.4793   61.9059 H       1  ZINC000950547210    0.0700
     35 H35       -15.4961    0.0588   60.8392 H       1  ZINC000950547210    0.1200
     36 H36       -17.8904   -0.6139   59.8601 H       1  ZINC000950547210    0.0700
     37 H37       -16.9985    0.6031   58.9203 H       1  ZINC000950547210    0.1100
     38 H38       -17.4751   -2.9653   59.2727 H       1  ZINC000950547210    0.0600
     39 H39       -16.9480   -3.3069   57.6034 H       1  ZINC000950547210    0.1000
     40 H40       -14.6620   -2.7453   58.1137 H       1  ZINC000950547210    0.0900
     41 H41       -15.2159   -3.8109   59.4269 H       1  ZINC000950547210    0.0900
     42 H42       -12.4858    0.6297   59.7000 H       1  ZINC000950547210    0.0700
     43 H43       -13.5315   -0.4901   58.7892 H       1  ZINC000950547210    0.1000
     44 H44       -13.5555    0.0823   54.5920 H       1  ZINC000950547210    0.0700
     45 H45       -13.2647    1.7848   54.1618 H       1  ZINC000950547210    0.0700
     46 H46       -13.3215    0.3527   52.1383 H       1  ZINC000950547210    0.0700
     47 H47       -11.1344    1.0480   51.1992 H       1  ZINC000950547210    0.0600
     48 H48       -11.8509    2.3488   52.1805 H       1  ZINC000950547210    0.0600
     49 H49        -9.3001    1.0667   52.5135 H       1  ZINC000950547210    0.0700
     50 H50       -10.0165    2.3675   53.4948 H       1  ZINC000950547210    0.0600
     51 H51        -9.4768    0.3921   54.8931 H       1  ZINC000950547210    0.0800
     52 H52        -9.7083   -1.3231   53.1173 H       1  ZINC000950547210    0.0600
     53 H53       -10.7155   -1.7249   54.5289 H       1  ZINC000950547210    0.0900
     54 H54       -12.5498   -1.7436   53.2146 H       1  ZINC000950547210    0.0600
     55 H55       -11.5426   -1.3418   51.8031 H       1  ZINC000950547210    0.0600
@<TRIPOS>BOND
     1     1     2    2
     2     2     3   am
     3     2    19    1
     4     3     4    1
     5     3    28    1
     6     4     5    1
     7     4    18    1
     8     4     6    1
     9     6     7    1
    10     6    29    1
    11     6    30    1
    12     7     8    1
    13     7    31    1
    14     7    32    1
    15     8     9    1
    16     8    33    1
    17     8    34    1
    18     9    10   am
    19     9    18    1
    20    10    11    2
    21    10    12    1
    22    12    17    1
    23    12    13    2
    24    13    14    1
    25    13    35    1
    26    14    15    1
    27    14    36    1
    28    14    37    1
    29    15    16    1
    30    16    17    1
    31    16    38    1
    32    16    39    1
    33    17    40    1
    34    17    41    1
    35    18    42    1
    36    18    43    1
    37    19    20    1
    38    19    25    1
    39    19    21    1
    40    21    22    1
    41    21    44    1
    42    21    45    1
    43    22    27    1
    44    22    23    1
    45    22    46    1
    46    23    24    1
    47    23    47    1
    48    23    48    1
    49    24    25    1
    50    24    49    1
    51    24    50    1
    52    25    26    1
    53    25    51    1
    54    26    27    1
    55    26    52    1
    56    26    53    1
    57    27    54    1
    58    27    55    1
@<TRIPOS>SUBSTRUCTURE
     1 ZINC000950547210        1 TEMP              0 ****  ****    0 ROOT


##########                                Name:    ZINC000098105561
##########                DOCK_Rotatable_Bonds:                   5
##########                         Heavy_Atoms:                  25
##########                    Molecular_Weight:             368.336
##########                DOCK_Rotatable_Bonds:                   5
##########                       Formal_Charge:         2.98023e-08
##########                     HBond_Acceptors:                   9
##########                        HBond_Donors:                   0
##########                         Heavy_Atoms:                  25
##########                          Grid_Score:          -24.692318
##########                     Grid_vdw_energy:          -24.226950
##########                      Grid_es_energy:           -0.465368
##########           Internal_energy_repulsive:            8.385568

@<TRIPOS>MOLECULE
ZINC000098105561
 36 38 1 0 0
SMALL
USER_CHARGES


@<TRIPOS>ATOM
      1 C1         -2.7718   -0.7623   48.0227 C.3     1  ZINC000098105561   -0.0800
      2 C2         -1.4542   -0.0808   47.7577 C.2     1  ZINC000098105561    0.0900
      3 C3         -0.3017   -0.5119   48.2758 C.2     1  ZINC000098105561   -0.2700
      4 S4          0.9817    0.5592   47.7195 S.3     1  ZINC000098105561    0.1600
      5 C5         -0.1571    1.4851   46.8427 C.2     1  ZINC000098105561    0.2500
      6 N6          0.1469    2.6034   46.0789 N.am    1  ZINC000098105561   -0.5200
      7 C7          0.3228    2.4752   44.6302 C.3     1  ZINC000098105561    0.0500
      8 C8          1.7872    2.1585   44.3204 C.3     1  ZINC000098105561    0.4400
      9 F9          2.1333    0.9350   44.9040 F       1  ZINC000098105561   -0.1700
     10 F10         1.9645    2.0808   42.9348 F       1  ZINC000098105561   -0.1700
     11 F11         2.6029    3.1698   44.8389 F       1  ZINC000098105561   -0.1700
     12 C12         0.2802    3.8073   46.6701 C.2     1  ZINC000098105561    0.5800
     13 O13         0.5463    4.7864   46.0013 O.2     1  ZINC000098105561   -0.4100
     14 C14         0.1024    3.9370   48.1347 C.2     1  ZINC000098105561    0.0800
     15 C15         1.1998    3.8833   48.9293 C.2     1  ZINC000098105561   -0.2000
     16 C16         1.0115    3.9965   50.3855 C.2     1  ZINC000098105561    0.4200
     17 O17         1.9461    4.1822   51.1449 O.2     1  ZINC000098105561   -0.4300
     18 C18        -0.3778    3.8717   50.8706 C.ar    1  ZINC000098105561   -0.2200
     19 C19        -0.6645    3.7048   52.2237 C.ar    1  ZINC000098105561   -0.0300
     20 C20        -1.9760    3.5866   52.6298 C.ar    1  ZINC000098105561   -0.1400
     21 C21        -3.0028    3.6328   51.6976 C.ar    1  ZINC000098105561   -0.0500
     22 C22        -2.7318    3.7998   50.3567 C.ar    1  ZINC000098105561   -0.1400
     23 C23        -1.4159    3.9251   49.9236 C.ar    1  ZINC000098105561    0.1400
     24 O24        -1.1356    4.1080   48.6181 O.3     1  ZINC000098105561   -0.2300
     25 N25        -1.3452    0.9871   46.9905 N.2     1  ZINC000098105561   -0.4600
     26 H26        -2.9423   -1.5296   47.2676 H       1  ZINC000098105561    0.0800
     27 H27        -2.7504   -1.2229   49.0104 H       1  ZINC000098105561    0.0800
     28 H28        -3.5757   -0.0274   47.9819 H       1  ZINC000098105561    0.0800
     29 H29        -0.1780   -1.3675   48.9230 H       1  ZINC000098105561    0.1900
     30 H30        -0.3099    1.6698   44.2572 H       1  ZINC000098105561    0.1700
     31 H31         0.0432    3.4109   44.1460 H       1  ZINC000098105561    0.1400
     32 H32         2.1856    3.7604   48.5057 H       1  ZINC000098105561    0.1800
     33 H33         0.1350    3.6678   52.9488 H       1  ZINC000098105561    0.1400
     34 H34        -2.2055    3.4573   53.6773 H       1  ZINC000098105561    0.1400
     35 H35        -4.0269    3.5362   52.0267 H       1  ZINC000098105561    0.1400
     36 H36        -3.5410    3.8338   49.6422 H       1  ZINC000098105561    0.1400
@<TRIPOS>BOND
     1     1     2    1
     2     1    26    1
     3     1    27    1
     4     1    28    1
     5     2    25    1
     6     2     3    2
     7     3     4    1
     8     3    29    1
     9     4     5    1
    10     5     6    1
    11     5    25    2
    12     6     7    1
    13     6    12   am
    14     7     8    1
    15     7    30    1
    16     7    31    1
    17     8     9    1
    18     8    10    1
    19     8    11    1
    20    12    13    2
    21    12    14    1
    22    14    24    1
    23    14    15    2
    24    15    16    1
    25    15    32    1
    26    16    17    2
    27    16    18    1
    28    18    23   ar
    29    18    19   ar
    30    19    20   ar
    31    19    33    1
    32    20    21   ar
    33    20    34    1
    34    21    22   ar
    35    21    35    1
    36    22    23   ar
    37    22    36    1
    38    23    24    1
@<TRIPOS>SUBSTRUCTURE
     1 ZINC000098105561        1 TEMP              0 ****  ****    0 ROOT


##########                                Name:    ZINC000426607143
##########                DOCK_Rotatable_Bonds:                   3
##########                         Heavy_Atoms:                  25
##########                    Molecular_Weight:             419.302
##########                DOCK_Rotatable_Bonds:                   3
##########                       Formal_Charge:         1.49012e-07
##########                     HBond_Acceptors:                   7
##########                        HBond_Donors:                   0
##########                         Heavy_Atoms:                  25
##########                          Grid_Score:          -24.596985
##########                     Grid_vdw_energy:          -23.189430
##########                      Grid_es_energy:           -1.407554
##########           Internal_energy_repulsive:            8.818691

@<TRIPOS>MOLECULE
ZINC000426607143
 40 43 1 0 0
SMALL
USER_CHARGES


@<TRIPOS>ATOM
      1 C1         -9.5901   -1.5750   61.0949 C.3     1  ZINC000426607143   -0.0900
      2 C2         -9.5453   -0.2930   61.8858 C.2     1  ZINC000426607143    0.1600
      3 N3         -9.8553   -0.2603   63.1456 N.2     1  ZINC000426607143   -0.4600
      4 S4         -9.6833    1.3421   63.6717 S.3     1  ZINC000426607143    0.2900
      5 C5         -9.1820    1.9742   62.1523 C.2     1  ZINC000426607143   -0.1300
      6 C6         -8.8296    3.4037   61.8304 C.3     1  ZINC000426607143   -0.0800
      7 C7         -9.1649    0.9084   61.3026 C.2     1  ZINC000426607143   -0.1200
      8 C8         -8.7819    1.0239   59.8744 C.2     1  ZINC000426607143    0.2500
      9 N9         -7.8377    0.3526   59.2666 N.2     1  ZINC000426607143   -0.3700
     10 O10        -7.7783    0.6801   58.1003 O.3     1  ZINC000426607143    0.0900
     11 C11        -8.6984    1.6139   57.8393 C.2     1  ZINC000426607143    0.2000
     12 C12        -8.9469    2.2788   56.5100 C.3     1  ZINC000426607143   -0.0300
     13 H13        -9.2284    3.3220   56.6529 H       1  ZINC000426607143    0.1600
     14 C14        -7.6937    2.1748   55.6102 C.3     1  ZINC000426607143   -0.1200
     15 C15        -8.3239    1.9772   54.2138 C.3     1  ZINC000426607143    0.1000
     16 N16        -9.6416    1.3793   54.4599 N.am    1  ZINC000426607143   -0.5800
     17 C17       -10.4069    0.7269   53.4866 C.ar    1  ZINC000426607143    0.1700
     18 C18       -10.3600   -0.6561   53.3765 C.ar    1  ZINC000426607143   -0.1000
     19 C19       -11.1167   -1.2973   52.4147 C.ar    1  ZINC000426607143   -0.1000
     20 C20       -11.9199   -0.5633   51.5617 C.ar    1  ZINC000426607143   -0.1000
     21 C21       -11.9694    0.8146   51.6682 C.ar    1  ZINC000426607143   -0.0900
     22 C22       -11.2199    1.4616   52.6319 C.ar    1  ZINC000426607143   -0.0800
     23 Br23      -11.2879    3.3459   52.7770 Br      1  ZINC000426607143   -0.0400
     24 C24       -10.0212    1.5409   55.7417 C.2     1  ZINC000426607143    0.5300
     25 O25       -11.0687    1.1486   56.2107 O.2     1  ZINC000426607143   -0.4900
     26 N26        -9.3471    1.8389   58.9548 N.2     1  ZINC000426607143   -0.4600
     27 H27        -8.6221   -2.0726   61.1544 H       1  ZINC000426607143    0.0900
     28 H28       -10.3602   -2.2283   61.5051 H       1  ZINC000426607143    0.0800
     29 H29        -9.8203   -1.3515   60.0532 H       1  ZINC000426607143    0.1100
     30 H30        -8.9384    4.0154   62.7260 H       1  ZINC000426607143    0.0800
     31 H31        -7.7989    3.4535   61.4794 H       1  ZINC000426607143    0.0900
     32 H32        -9.4966    3.7760   61.0528 H       1  ZINC000426607143    0.0900
     33 H33        -7.1091    3.0940   55.6479 H       1  ZINC000426607143    0.1100
     34 H34        -7.0841    1.3150   55.8883 H       1  ZINC000426607143    0.1000
     35 H35        -8.4337    2.9377   53.7102 H       1  ZINC000426607143    0.0900
     36 H36        -7.7103    1.3044   53.6148 H       1  ZINC000426607143    0.0900
     37 H37        -9.7324   -1.2303   54.0418 H       1  ZINC000426607143    0.1400
     38 H38       -11.0804   -2.3732   52.3288 H       1  ZINC000426607143    0.1400
     39 H39       -12.5098   -1.0672   50.8103 H       1  ZINC000426607143    0.1400
     40 H40       -12.5978    1.3851   51.0003 H       1  ZINC000426607143    0.1400
@<TRIPOS>BOND
     1     1     2    1
     2     1    27    1
     3     1    28    1
     4     1    29    1
     5     2     7    1
     6     2     3    2
     7     3     4    1
     8     4     5    1
     9     5     6    1
    10     5     7    2
    11     6    30    1
    12     6    31    1
    13     6    32    1
    14     7     8    1
    15     8    26    1
    16     8     9    2
    17     9    10    1
    18    10    11    1
    19    11    12    1
    20    11    26    2
    21    12    13    1
    22    12    24    1
    23    12    14    1
    24    14    15    1
    25    14    33    1
    26    14    34    1
    27    15    16    1
    28    15    35    1
    29    15    36    1
    30    16    17    1
    31    16    24   am
    32    17    22   ar
    33    17    18   ar
    34    18    19   ar
    35    18    37    1
    36    19    20   ar
    37    19    38    1
    38    20    21   ar
    39    20    39    1
    40    21    22   ar
    41    21    40    1
    42    22    23    1
    43    24    25    2
@<TRIPOS>SUBSTRUCTURE
     1 ZINC000426607143        1 TEMP              0 ****  ****    0 ROOT


##########                                Name:    ZINC000341804698
##########                DOCK_Rotatable_Bonds:                   7
##########                         Heavy_Atoms:                  24
##########                    Molecular_Weight:             342.318
##########                DOCK_Rotatable_Bonds:                   7
##########                       Formal_Charge:                0.02
##########                     HBond_Acceptors:                   8
##########                        HBond_Donors:                   0
##########                         Heavy_Atoms:                  24
##########                          Grid_Score:          -24.534369
##########                     Grid_vdw_energy:          -24.032513
##########                      Grid_es_energy:           -0.501855
##########           Internal_energy_repulsive:           13.418928

@<TRIPOS>MOLECULE
ZINC000341804698
 41 42 1 0 0
SMALL
USER_CHARGES


@<TRIPOS>ATOM
      1 C1        -13.1115   -4.0821   57.3155 C.3     1  ZINC000341804698    0.0300
      2 O2        -12.9780   -3.3298   56.1078 O.3     1  ZINC000341804698   -0.3900
      3 C3        -11.7155   -2.6751   55.9675 C.3     1  ZINC000341804698    0.0700
      4 C4        -11.7415   -1.7774   54.7288 C.3     1  ZINC000341804698    0.0400
      5 C5        -13.1275   -1.6392   54.2523 C.1     1  ZINC000341804698    0.2200
      6 N6        -14.1969   -1.5326   53.8846 N.1     1  ZINC000341804698   -0.4200
      7 C7        -11.1859   -0.3974   55.0875 C.3     1  ZINC000341804698   -0.1200
      8 C8        -11.2455    0.5091   53.8540 C.3     1  ZINC000341804698    0.1100
      9 N9        -10.5451   -0.1539   52.7456 N.am    1  ZINC000341804698   -0.6000
     10 C10        -9.5589    0.4791   52.0800 C.2     1  ZINC000341804698    0.5700
     11 O11        -8.9870   -0.0803   51.1648 O.2     1  ZINC000341804698   -0.5200
     12 C12        -9.1724    1.8538   52.4630 C.ar    1  ZINC000341804698   -0.0900
     13 C13       -10.0544    2.9143   52.2502 C.ar    1  ZINC000341804698   -0.1100
     14 C14        -9.6904    4.1963   52.6088 C.ar    1  ZINC000341804698   -0.0800
     15 C15        -8.4537    4.4344   53.1788 C.ar    1  ZINC000341804698   -0.1700
     16 C16        -7.5693    3.3859   53.3939 C.ar    1  ZINC000341804698    0.1100
     17 O17        -6.3546    3.6258   53.9543 O.3     1  ZINC000341804698   -0.3100
     18 C18        -5.3810    4.2795   53.1374 C.3     1  ZINC000341804698    0.6000
     19 F19        -5.5286    5.6657   53.2550 F       1  ZINC000341804698   -0.1600
     20 F20        -4.0981    3.9100   53.5549 F       1  ZINC000341804698   -0.1300
     21 F21        -5.5637    3.9028   51.8026 F       1  ZINC000341804698   -0.1600
     22 C22        -7.9268    2.0949   53.0437 C.ar    1  ZINC000341804698   -0.0700
     23 C23       -10.9400   -1.5202   52.3770 C.3     1  ZINC000341804698    0.0900
     24 C24       -10.8837   -2.4039   53.6270 C.3     1  ZINC000341804698   -0.1200
     25 H25       -12.3432   -4.8544   57.3493 H       1  ZINC000341804698    0.0400
     26 H26       -12.9968   -3.4176   58.1719 H       1  ZINC000341804698    0.0500
     27 H27       -14.0965   -4.5477   57.3464 H       1  ZINC000341804698    0.0900
     28 H28       -11.5205   -2.0686   56.8518 H       1  ZINC000341804698    0.0700
     29 H29       -10.9291   -3.4220   55.8585 H       1  ZINC000341804698    0.0600
     30 H30       -11.7833    0.0383   55.8884 H       1  ZINC000341804698    0.1000
     31 H31       -10.1515   -0.4960   55.4169 H       1  ZINC000341804698    0.0900
     32 H32       -12.2857    0.6821   53.5776 H       1  ZINC000341804698    0.0700
     33 H33       -10.7612    1.4601   54.0756 H       1  ZINC000341804698    0.1100
     34 H34       -11.0213    2.7318   51.8048 H       1  ZINC000341804698    0.1400
     35 H35       -10.3738    5.0161   52.4433 H       1  ZINC000341804698    0.1400
     36 H36        -8.1742    5.4397   53.4574 H       1  ZINC000341804698    0.1400
     37 H37        -7.2400    1.2784   53.2108 H       1  ZINC000341804698    0.1500
     38 H38       -11.9551   -1.5127   51.9801 H       1  ZINC000341804698    0.0800
     39 H39       -10.2540   -1.9083   51.6240 H       1  ZINC000341804698    0.1100
     40 H40        -9.8522   -2.4836   53.9702 H       1  ZINC000341804698    0.1000
     41 H41       -11.2660   -3.3965   53.3884 H       1  ZINC000341804698    0.0900
@<TRIPOS>BOND
     1     1     2    1
     2     1    25    1
     3     1    26    1
     4     1    27    1
     5     2     3    1
     6     3     4    1
     7     3    28    1
     8     3    29    1
     9     4    24    1
    10     4     5    1
    11     4     7    1
    12     5     6    3
    13     7     8    1
    14     7    30    1
    15     7    31    1
    16     8     9    1
    17     8    32    1
    18     8    33    1
    19     9    10   am
    20     9    23    1
    21    10    11    2
    22    10    12    1
    23    12    22   ar
    24    12    13   ar
    25    13    14   ar
    26    13    34    1
    27    14    15   ar
    28    14    35    1
    29    15    16   ar
    30    15    36    1
    31    16    17    1
    32    16    22   ar
    33    17    18    1
    34    18    19    1
    35    18    20    1
    36    18    21    1
    37    22    37    1
    38    23    24    1
    39    23    38    1
    40    23    39    1
    41    24    40    1
    42    24    41    1
@<TRIPOS>SUBSTRUCTURE
     1 ZINC000341804698        1 TEMP              0 ****  ****    0 ROOT


##########                                Name:    ZINC001060620810
##########                DOCK_Rotatable_Bonds:                   5
##########                         Heavy_Atoms:                  24
##########                    Molecular_Weight:             332.421
##########                DOCK_Rotatable_Bonds:                   5
##########                       Formal_Charge:           0.0299998
##########                     HBond_Acceptors:                   6
##########                        HBond_Donors:                   2
##########                         Heavy_Atoms:                  24
##########                          Grid_Score:          -24.445772
##########                     Grid_vdw_energy:          -24.598673
##########                      Grid_es_energy:            0.152901
##########           Internal_energy_repulsive:            9.015322

@<TRIPOS>MOLECULE
ZINC001060620810
 49 52 1 0 0
SMALL
USER_CHARGES


@<TRIPOS>ATOM
      1 O1        -10.7397   -2.5138   55.7977 O.2     1  ZINC001060620810   -0.5400
      2 C2        -11.4524   -1.5815   55.4913 C.2     1  ZINC001060620810    0.5500
      3 N3        -12.3621   -1.1122   56.3680 N.am    1  ZINC001060620810   -0.7200
      4 C4        -12.4889   -1.7270   57.6917 C.3     1  ZINC001060620810    0.1400
      5 C5        -12.0985   -0.7098   58.7659 C.3     1  ZINC001060620810   -0.1300
      6 C6        -12.2309   -1.3518   60.1483 C.3     1  ZINC001060620810   -0.1300
      7 C7        -13.6786   -1.7955   60.3681 C.3     1  ZINC001060620810    0.1600
      8 N8        -14.5642   -0.6316   60.2834 N.pl3   1  ZINC001060620810   -0.6900
      9 C9        -14.9642    0.0201   61.4387 C.ar    1  ZINC001060620810    0.5600
     10 N10       -15.9331    0.9206   61.3699 N.ar    1  ZINC001060620810   -0.5400
     11 C11       -16.3429    1.5580   62.4543 C.ar    1  ZINC001060620810    0.1700
     12 C12       -15.7369    1.2803   63.6716 C.ar    1  ZINC001060620810   -0.0700
     13 F13       -16.1269    1.9159   64.7982 F       1  ZINC001060620810   -0.1300
     14 C14       -14.7215    0.3349   63.7058 C.ar    1  ZINC001060620810    0.1800
     15 N15       -14.3646   -0.2688   62.5839 N.ar    1  ZINC001060620810   -0.5500
     16 C16       -14.0690   -2.8126   59.2939 C.3     1  ZINC001060620810   -0.1200
     17 C17       -13.9366   -2.1705   57.9115 C.3     1  ZINC001060620810   -0.1300
     18 C18       -11.3207   -0.9479   54.1303 C.3     1  ZINC001060620810   -0.1500
     19 C19       -12.3219   -1.4118   53.0805 C.3     1  ZINC001060620810   -0.1500
     20 C20       -10.8822   -1.8729   53.0059 C.3     1  ZINC001060620810   -0.1100
     21 H21       -10.7040   -2.9178   53.2598 H       1  ZINC001060620810    0.1100
     22 C22       -10.0322   -1.3471   51.8535 C.3     1  ZINC001060620810   -0.0900
     23 C23        -9.3489   -0.0373   52.2471 C.3     1  ZINC001060620810   -0.1200
     24 C24       -10.4178    0.9392   52.7510 C.3     1  ZINC001060620810   -0.1200
     25 C25       -10.8589    0.5009   54.1474 C.3     1  ZINC001060620810   -0.0800
     26 H26       -12.9330   -0.3674   56.1224 H       1  ZINC001060620810    0.4000
     27 H27       -11.8300   -2.5930   57.7547 H       1  ZINC001060620810    0.0900
     28 H28       -11.0671   -0.3937   58.6094 H       1  ZINC001060620810    0.0700
     29 H29       -12.7574    0.1562   58.7029 H       1  ZINC001060620810    0.0600
     30 H30       -11.9527   -0.6272   60.9136 H       1  ZINC001060620810    0.0700
     31 H31       -11.5720   -2.2178   60.2113 H       1  ZINC001060620810    0.0800
     32 H32       -13.7729   -2.2529   61.3530 H       1  ZINC001060620810    0.1000
     33 H33       -14.8705   -0.3171   59.4184 H       1  ZINC001060620810    0.4100
     34 H34       -17.1358    2.2884   62.3924 H       1  ZINC001060620810    0.1800
     35 H35       -14.2286    0.0953   64.6363 H       1  ZINC001060620810    0.1800
     36 H36       -15.1003   -3.1287   59.4505 H       1  ZINC001060620810    0.0800
     37 H37       -13.4100   -3.6786   59.3569 H       1  ZINC001060620810    0.0900
     38 H38       -14.5955   -1.3046   57.8485 H       1  ZINC001060620810    0.0700
     39 H39       -14.2147   -2.8952   57.1461 H       1  ZINC001060620810    0.0800
     40 H40       -13.0647   -2.1495   53.3838 H       1  ZINC001060620810    0.1000
     41 H41       -12.6576   -0.6797   52.3460 H       1  ZINC001060620810    0.1100
     42 H42       -10.6850   -1.1711   50.9985 H       1  ZINC001060620810    0.0700
     43 H43        -9.2747   -2.0831   51.5843 H       1  ZINC001060620810    0.0700
     44 H44        -8.8448    0.3877   51.3792 H       1  ZINC001060620810    0.0700
     45 H45        -8.6237   -0.2264   53.0386 H       1  ZINC001060620810    0.0700
     46 H46       -11.2735    0.9254   52.0758 H       1  ZINC001060620810    0.0700
     47 H47       -10.0014    1.9454   52.7977 H       1  ZINC001060620810    0.0700
     48 H48       -11.6795    1.1360   54.4814 H       1  ZINC001060620810    0.0700
     49 H49       -10.0212    0.6033   54.8373 H       1  ZINC001060620810    0.0700
@<TRIPOS>BOND
     1     1     2    2
     2     2     3   am
     3     2    18    1
     4     3     4    1
     5     3    26    1
     6     4    17    1
     7     4     5    1
     8     4    27    1
     9     5     6    1
    10     5    28    1
    11     5    29    1
    12     6     7    1
    13     6    30    1
    14     6    31    1
    15     7     8    1
    16     7    16    1
    17     7    32    1
    18     8     9    1
    19     8    33    1
    20     9    15   ar
    21     9    10   ar
    22    10    11   ar
    23    11    12   ar
    24    11    34    1
    25    12    13    1
    26    12    14   ar
    27    14    15   ar
    28    14    35    1
    29    16    17    1
    30    16    36    1
    31    16    37    1
    32    17    38    1
    33    17    39    1
    34    18    20    1
    35    18    25    1
    36    18    19    1
    37    19    20    1
    38    19    40    1
    39    19    41    1
    40    20    21    1
    41    20    22    1
    42    22    23    1
    43    22    42    1
    44    22    43    1
    45    23    24    1
    46    23    44    1
    47    23    45    1
    48    24    25    1
    49    24    46    1
    50    24    47    1
    51    25    48    1
    52    25    49    1
@<TRIPOS>SUBSTRUCTURE
     1 ZINC001060620810        1 TEMP              0 ****  ****    0 ROOT


##########                                Name:    ZINC000793092912
##########                DOCK_Rotatable_Bonds:                   4
##########                         Heavy_Atoms:                  26
##########                    Molecular_Weight:               407.2
##########                DOCK_Rotatable_Bonds:                   4
##########                       Formal_Charge:         2.90573e-07
##########                     HBond_Acceptors:                  10
##########                        HBond_Donors:                   1
##########                         Heavy_Atoms:                  26
##########                          Grid_Score:          -24.077255
##########                     Grid_vdw_energy:          -22.129505
##########                      Grid_es_energy:           -1.947750
##########           Internal_energy_repulsive:           11.175933

@<TRIPOS>MOLECULE
ZINC000793092912
 40 43 1 0 0
SMALL
USER_CHARGES


@<TRIPOS>ATOM
      1 C1         -7.3403    5.3763   55.8102 C.3     1  ZINC000793092912   -0.1300
      2 C2         -6.0732    5.3685   54.9527 C.3     1  ZINC000793092912   -0.0800
      3 C3         -5.0227    6.3978   55.3402 C.3     1  ZINC000793092912   -0.1100
      4 C4         -3.6458    5.7844   55.5123 C.3     1  ZINC000793092912    0.1100
      5 N5         -3.3553    4.8016   54.4821 N.am    1  ZINC000793092912   -0.5700
      6 C6         -2.2479    4.9571   53.7298 C.2     1  ZINC000793092912    0.5100
      7 O7         -1.5141    5.9051   53.9187 O.2     1  ZINC000793092912   -0.5100
      8 C8         -1.9238    3.9628   52.6637 C.2     1  ZINC000793092912    0.5100
      9 O9         -1.6834    2.8108   52.9611 O.2     1  ZINC000793092912   -0.4900
     10 N10        -1.8982    4.3446   51.3715 N.am    1  ZINC000793092912   -0.6400
     11 C11        -1.5947    3.4135   50.3731 C.ar    1  ZINC000793092912    0.1600
     12 C12        -0.3420    3.4213   49.7737 C.ar    1  ZINC000793092912   -0.1200
     13 C13        -0.0407    2.5019   48.7870 C.ar    1  ZINC000793092912   -0.0600
     14 C14        -0.9873    1.5703   48.3925 C.ar    1  ZINC000793092912    0.0200
     15 O15        -0.9414    0.5748   47.4585 O.3     1  ZINC000793092912   -0.2800
     16 C16        -2.0367   -0.3032   47.7785 C.3     1  ZINC000793092912    0.5700
     17 F17        -2.5881   -0.8462   46.6132 F       1  ZINC000793092912   -0.1100
     18 F18        -1.6151   -1.3205   48.6415 F       1  ZINC000793092912   -0.1500
     19 O19        -2.9862    0.5585   48.4335 O.3     1  ZINC000793092912   -0.2800
     20 C20        -2.2452    1.5598   48.9920 C.ar    1  ZINC000793092912    0.0500
     21 C21        -2.5443    2.4770   49.9846 C.ar    1  ZINC000793092912   -0.0900
     22 C22        -4.2167    3.6554   54.2340 C.3     1  ZINC000793092912    0.1100
     23 C23        -5.6848    4.0478   54.3091 C.3     1  ZINC000793092912   -0.1200
     24 H24        -6.3650    3.2212   54.5143 H       1  ZINC000793092912    0.1400
     25 C25        -6.2605    5.1562   53.4409 C.3     1  ZINC000793092912    0.0000
     26 Cl26       -7.9371    4.9388   52.8142 Cl      1  ZINC000793092912   -0.0800
     27 Cl27       -5.1266    6.0319   52.3460 Cl      1  ZINC000793092912   -0.0900
     28 H28        -7.2261    4.6713   56.6338 H       1  ZINC000793092912    0.0800
     29 H29        -7.5029    6.3777   56.2092 H       1  ZINC000793092912    0.0700
     30 H30        -8.1946    5.0857   55.1989 H       1  ZINC000793092912    0.0700
     31 H31        -4.9741    7.1616   54.5641 H       1  ZINC000793092912    0.0900
     32 H32        -5.3189    6.8686   56.2777 H       1  ZINC000793092912    0.1000
     33 H33        -2.8974    6.5756   55.4686 H       1  ZINC000793092912    0.1100
     34 H34        -3.5924    5.3016   56.4881 H       1  ZINC000793092912    0.0800
     35 H35        -2.0903    5.2653   51.1338 H       1  ZINC000793092912    0.4300
     36 H36         0.3975    4.1470   50.0787 H       1  ZINC000793092912    0.1500
     37 H37         0.9341    2.5098   48.3224 H       1  ZINC000793092912    0.1500
     38 H38        -3.5167    2.4668   50.4543 H       1  ZINC000793092912    0.1600
     39 H39        -4.0157    3.2672   53.2355 H       1  ZINC000793092912    0.1400
     40 H40        -3.9988    2.8795   54.9680 H       1  ZINC000793092912    0.1000
@<TRIPOS>BOND
     1     1     2    1
     2     1    28    1
     3     1    29    1
     4     1    30    1
     5     2    23    1
     6     2    25    1
     7     2     3    1
     8     3     4    1
     9     3    31    1
    10     3    32    1
    11     4     5    1
    12     4    33    1
    13     4    34    1
    14     5     6   am
    15     5    22    1
    16     6     7    2
    17     6     8    1
    18     8     9    2
    19     8    10   am
    20    10    11    1
    21    10    35    1
    22    11    21   ar
    23    11    12   ar
    24    12    13   ar
    25    12    36    1
    26    13    14   ar
    27    13    37    1
    28    14    20   ar
    29    14    15    1
    30    15    16    1
    31    16    17    1
    32    16    18    1
    33    16    19    1
    34    19    20    1
    35    20    21   ar
    36    21    38    1
    37    22    23    1
    38    22    39    1
    39    22    40    1
    40    23    24    1
    41    23    25    1
    42    25    26    1
    43    25    27    1
@<TRIPOS>SUBSTRUCTURE
     1 ZINC000793092912        1 TEMP              0 ****  ****    0 ROOT


##########                                Name:    ZINC000482139334
##########                DOCK_Rotatable_Bonds:                   4
##########                         Heavy_Atoms:                  26
##########                    Molecular_Weight:             348.376
##########                DOCK_Rotatable_Bonds:                   4
##########                       Formal_Charge:           0.0300002
##########                     HBond_Acceptors:                   5
##########                        HBond_Donors:                   1
##########                         Heavy_Atoms:                  26
##########                          Grid_Score:          -24.015614
##########                     Grid_vdw_energy:          -23.659214
##########                      Grid_es_energy:           -0.356400
##########           Internal_energy_repulsive:           19.436743

@<TRIPOS>MOLECULE
ZINC000482139334
 43 47 1 0 0
SMALL
USER_CHARGES


@<TRIPOS>ATOM
      1 O1         -1.5480    1.8944   49.3012 O.2     1  ZINC000482139334   -0.4800
      2 C2         -1.1978    3.0190   49.0127 C.2     1  ZINC000482139334    0.5500
      3 N3         -1.8903    4.0795   49.4735 N.am    1  ZINC000482139334   -0.6100
      4 C4         -3.0062    3.8846   50.2724 C.2     1  ZINC000482139334    0.4300
      5 N5         -3.6499    4.8209   50.9210 N.2     1  ZINC000482139334   -0.4800
      6 C6         -4.6844    4.2480   51.5903 C.2     1  ZINC000482139334    0.0400
      7 C7         -5.6695    4.9481   52.4509 C.ar    1  ZINC000482139334   -0.0500
      8 C8         -5.5859    6.3269   52.6303 C.ar    1  ZINC000482139334   -0.0800
      9 C9         -6.5054    6.9736   53.4317 C.ar    1  ZINC000482139334   -0.1300
     10 C10        -7.5087    6.2560   54.0570 C.ar    1  ZINC000482139334   -0.0800
     11 C11        -7.5981    4.8866   53.8842 C.ar    1  ZINC000482139334   -0.1600
     12 C12        -6.6871    4.2287   53.0793 C.ar    1  ZINC000482139334    0.1300
     13 F13        -6.7747    2.8911   52.9106 F       1  ZINC000482139334   -0.1200
     14 C14        -4.6505    2.9203   51.3266 C.2     1  ZINC000482139334   -0.0600
     15 O15        -3.6050    2.7057   50.5011 O.3     1  ZINC000482139334   -0.1800
     16 C16         0.0153    3.2311   48.1441 C.3     1  ZINC000482139334   -0.1800
     17 H17         0.4743    4.2175   48.2102 H       1  ZINC000482139334    0.1400
     18 C18         0.9420    2.0333   47.9188 C.3     1  ZINC000482139334   -0.1200
     19 C19         0.0435    2.5308   46.7911 C.3     1  ZINC000482139334   -0.0500
     20 C20        -1.1519    1.6970   46.3005 C.3     1  ZINC000482139334   -0.0700
     21 C21        -0.7760    1.4222   44.8274 C.3     1  ZINC000482139334   -0.0900
     22 C22         0.1378    2.5626   44.4306 C.ar    1  ZINC000482139334   -0.0800
     23 C23         0.5249    3.0072   43.1782 C.ar    1  ZINC000482139334   -0.1100
     24 C24         1.3821    4.0835   43.0558 C.ar    1  ZINC000482139334   -0.1100
     25 C25         1.8559    4.7195   44.1877 C.ar    1  ZINC000482139334   -0.1200
     26 C26         1.4710    4.2781   45.4386 C.ar    1  ZINC000482139334   -0.1000
     27 C27         0.6115    3.1998   45.5645 C.ar    1  ZINC000482139334   -0.0700
     28 H28        -1.6080    4.9792   49.2461 H       1  ZINC000482139334    0.4400
     29 H29        -4.8028    6.8892   52.1434 H       1  ZINC000482139334    0.1300
     30 H30        -6.4408    8.0427   53.5709 H       1  ZINC000482139334    0.1400
     31 H31        -8.2253    6.7669   54.6832 H       1  ZINC000482139334    0.1400
     32 H32        -8.3833    4.3311   54.3755 H       1  ZINC000482139334    0.1400
     33 H33        -5.3340    2.1738   51.7034 H       1  ZINC000482139334    0.2200
     34 H34         2.0106    2.2318   47.8359 H       1  ZINC000482139334    0.1200
     35 H35         0.6741    1.0919   48.3988 H       1  ZINC000482139334    0.1100
     36 H36        -1.2315    0.7656   46.8609 H       1  ZINC000482139334    0.0800
     37 H37        -2.0770    2.2700   46.3644 H       1  ZINC000482139334    0.0900
     38 H38        -0.2516    0.4705   44.7425 H       1  ZINC000482139334    0.0800
     39 H39        -1.6697    1.4193   44.2035 H       1  ZINC000482139334    0.0800
     40 H40         0.1555    2.5104   42.2932 H       1  ZINC000482139334    0.1200
     41 H41         1.6820    4.4271   42.0768 H       1  ZINC000482139334    0.1300
     42 H42         2.5267    5.5608   44.0941 H       1  ZINC000482139334    0.1300
     43 H43         1.8423    4.7758   46.3223 H       1  ZINC000482139334    0.1200
@<TRIPOS>BOND
     1     1     2    2
     2     2     3   am
     3     2    16    1
     4     3     4    1
     5     3    28    1
     6     4    15    1
     7     4     5    2
     8     5     6    1
     9     6     7    1
    10     6    14    2
    11     7    12   ar
    12     7     8   ar
    13     8     9   ar
    14     8    29    1
    15     9    10   ar
    16     9    30    1
    17    10    11   ar
    18    10    31    1
    19    11    12   ar
    20    11    32    1
    21    12    13    1
    22    14    15    1
    23    14    33    1
    24    16    17    1
    25    16    19    1
    26    16    18    1
    27    18    19    1
    28    18    34    1
    29    18    35    1
    30    19    27    1
    31    19    20    1
    32    20    21    1
    33    20    36    1
    34    20    37    1
    35    21    22    1
    36    21    38    1
    37    21    39    1
    38    22    27   ar
    39    22    23   ar
    40    23    24   ar
    41    23    40    1
    42    24    25   ar
    43    24    41    1
    44    25    26   ar
    45    25    42    1
    46    26    27   ar
    47    26    43    1
@<TRIPOS>SUBSTRUCTURE
     1 ZINC000482139334        1 TEMP              0 ****  ****    0 ROOT


##########                                Name:    ZINC001002468398
##########                DOCK_Rotatable_Bonds:                   7
##########                         Heavy_Atoms:                  24
##########                    Molecular_Weight:             341.358
##########                DOCK_Rotatable_Bonds:                   7
##########                       Formal_Charge:           0.0100001
##########                     HBond_Acceptors:                   8
##########                        HBond_Donors:                   0
##########                         Heavy_Atoms:                  24
##########                          Grid_Score:          -23.881641
##########                     Grid_vdw_energy:          -22.356728
##########                      Grid_es_energy:           -1.524913
##########           Internal_energy_repulsive:           33.683979

@<TRIPOS>MOLECULE
ZINC001002468398
 45 47 1 0 0
SMALL
USER_CHARGES


@<TRIPOS>ATOM
      1 C1         -5.8349    4.0710   54.5834 C.3     1  ZINC001002468398   -0.1400
      2 C2         -6.7737    2.8902   54.8388 C.3     1  ZINC001002468398   -0.0500
      3 C3         -7.0746    2.7974   56.3126 C.2     1  ZINC001002468398    0.0500
      4 C4         -8.1561    2.1991   56.8823 C.2     1  ZINC001002468398   -0.0800
      5 C5         -9.2552    1.5188   56.1737 C.2     1  ZINC001002468398    0.6000
      6 O6         -9.2256    1.4152   54.9623 O.2     1  ZINC001002468398   -0.5300
      7 N7        -10.2930    1.0116   56.8681 N.am    1  ZINC001002468398   -0.6000
      8 C8        -10.3286    1.1365   58.3274 C.3     1  ZINC001002468398    0.0900
      9 C9        -11.3852    0.3356   56.1639 C.3     1  ZINC001002468398    0.1000
     10 C10       -10.9397   -1.0723   55.7637 C.3     1  ZINC001002468398    0.1300
     11 H11        -9.9872   -1.3085   56.2380 H       1  ZINC001002468398    0.0800
     12 C12       -10.7987   -1.1620   54.2296 C.3     1  ZINC001002468398   -0.1300
     13 C13       -11.3375   -2.5823   53.9135 C.3     1  ZINC001002468398   -0.1300
     14 C14       -12.4721   -2.7242   54.9585 C.3     1  ZINC001002468398    0.1000
     15 N15       -11.9570   -2.0531   56.1698 N.am    1  ZINC001002468398   -0.6100
     16 C16       -12.3557   -2.2988   57.4335 C.2     1  ZINC001002468398    0.5600
     17 O17       -11.8617   -1.6847   58.3555 O.2     1  ZINC001002468398   -0.5100
     18 C18       -13.4154   -3.3364   57.7011 C.3     1  ZINC001002468398   -0.2000
     19 H19       -13.0784   -4.3723   57.6663 H       1  ZINC001002468398    0.1500
     20 C20       -14.8348   -3.0385   57.2139 C.3     1  ZINC001002468398   -0.1500
     21 C21       -14.5111   -2.9835   58.7091 C.3     1  ZINC001002468398    0.2300
     22 F22       -15.0040   -4.0153   59.5151 F       1  ZINC001002468398   -0.1500
     23 F23       -14.4528   -1.7221   59.3114 F       1  ZINC001002468398   -0.1400
     24 N24        -8.0315    2.3465   58.2293 N.2     1  ZINC001002468398   -0.4600
     25 C25        -6.9346    2.9991   58.4724 C.2     1  ZINC001002468398    0.1700
     26 O26        -6.3239    3.2841   57.3136 O.3     1  ZINC001002468398   -0.2000
     27 H27        -6.3121    4.9930   54.9155 H       1  ZINC001002468398    0.0600
     28 H28        -4.9066    3.9231   55.1351 H       1  ZINC001002468398    0.0600
     29 H29        -5.6174    4.1382   53.5174 H       1  ZINC001002468398    0.0700
     30 H30        -7.7020    3.0381   54.2870 H       1  ZINC001002468398    0.1200
     31 H31        -6.2965    1.9682   54.5067 H       1  ZINC001002468398    0.0900
     32 H32       -10.3763    2.1906   58.6008 H       1  ZINC001002468398    0.0700
     33 H33       -11.2072    0.6206   58.7148 H       1  ZINC001002468398    0.0700
     34 H34        -9.4291    0.6912   58.7523 H       1  ZINC001002468398    0.0700
     35 H35       -12.2539    0.2693   56.8190 H       1  ZINC001002468398    0.0900
     36 H36       -11.6466    0.9018   55.2699 H       1  ZINC001002468398    0.0900
     37 H37       -11.4074   -0.4011   53.7412 H       1  ZINC001002468398    0.1000
     38 H38        -9.7539   -1.0709   53.9324 H       1  ZINC001002468398    0.0800
     39 H39       -11.7322   -2.6335   52.8988 H       1  ZINC001002468398    0.0900
     40 H40       -10.5661   -3.3365   54.0694 H       1  ZINC001002468398    0.0800
     41 H41       -13.3772   -2.2301   54.6054 H       1  ZINC001002468398    0.0800
     42 H42       -12.6689   -3.7764   55.1642 H       1  ZINC001002468398    0.0800
     43 H43       -15.0022   -2.0920   56.6998 H       1  ZINC001002468398    0.1300
     44 H44       -15.4318   -3.8785   56.8589 H       1  ZINC001002468398    0.1400
     45 H45        -6.5701    3.2659   59.4534 H       1  ZINC001002468398    0.2600
@<TRIPOS>BOND
     1     1     2    1
     2     1    27    1
     3     1    28    1
     4     1    29    1
     5     2     3    1
     6     2    30    1
     7     2    31    1
     8     3    26    1
     9     3     4    2
    10     4     5    1
    11     4    24    1
    12     5     6    2
    13     5     7   am
    14     7     8    1
    15     7     9    1
    16     8    32    1
    17     8    33    1
    18     8    34    1
    19     9    10    1
    20     9    35    1
    21     9    36    1
    22    10    11    1
    23    10    15    1
    24    10    12    1
    25    12    13    1
    26    12    37    1
    27    12    38    1
    28    13    14    1
    29    13    39    1
    30    13    40    1
    31    14    15    1
    32    14    41    1
    33    14    42    1
    34    15    16   am
    35    16    17    2
    36    16    18    1
    37    18    19    1
    38    18    21    1
    39    18    20    1
    40    20    21    1
    41    20    43    1
    42    20    44    1
    43    21    22    1
    44    21    23    1
    45    24    25    2
    46    25    26    1
    47    25    45    1
@<TRIPOS>SUBSTRUCTURE
     1 ZINC001002468398        1 TEMP              0 ****  ****    0 ROOT


##########                                Name:    ZINC000828026236
##########                DOCK_Rotatable_Bonds:                   1
##########                         Heavy_Atoms:                  19
##########                    Molecular_Weight:             383.045
##########                DOCK_Rotatable_Bonds:                   1
##########                       Formal_Charge:                   0
##########                     HBond_Acceptors:                   5
##########                        HBond_Donors:                   0
##########                         Heavy_Atoms:                  19
##########                          Grid_Score:          -23.852564
##########                     Grid_vdw_energy:          -23.428719
##########                      Grid_es_energy:           -0.423846
##########           Internal_energy_repulsive:            3.807544

@<TRIPOS>MOLECULE
ZINC000828026236
 28 30 1 0 0
SMALL
USER_CHARGES


@<TRIPOS>ATOM
      1 N1         -0.2067    5.1562   48.1717 N.1     1  ZINC000828026236   -0.3800
      2 C2          0.3771    5.0061   47.2088 C.1     1  ZINC000828026236    0.2600
      3 C3          1.1130    4.8169   45.9951 C.ar    1  ZINC000828026236   -0.0500
      4 C4          1.9394    5.8305   45.4975 C.ar    1  ZINC000828026236    0.0100
      5 C5          2.6297    5.5977   44.3198 C.ar    1  ZINC000828026236   -0.1600
      6 Br6         3.7619    6.9301   43.5995 Br      1  ZINC000828026236   -0.0100
      7 C7          2.4851    4.3823   43.6744 C.ar    1  ZINC000828026236    0.1800
      8 N8          1.7007    3.4394   44.1604 N.ar    1  ZINC000828026236   -0.5000
      9 C9          1.0231    3.6071   45.2847 C.ar    1  ZINC000828026236    0.3600
     10 N10         0.2116    2.5900   45.7575 N.3     1  ZINC000828026236   -0.4900
     11 C11         0.9300    1.7504   46.7266 C.3     1  ZINC000828026236    0.0500
     12 C12        -0.0711    0.8833   47.5006 C.3     1  ZINC000828026236    0.1100
     13 N13        -0.9529    0.2261   46.5324 N.pl3   1  ZINC000828026236   -0.4400
     14 C14        -1.7738   -0.8427   46.7188 C.2     1  ZINC000828026236   -0.0300
     15 Br15       -2.0217   -1.8103   48.3244 Br      1  ZINC000828026236    0.0200
     16 C16        -2.3773   -1.0778   45.5339 C.2     1  ZINC000828026236    0.0300
     17 N17        -1.9300   -0.1691   44.6504 N.2     1  ZINC000828026236   -0.4700
     18 C18        -1.0788    0.6159   45.2385 C.2     1  ZINC000828026236    0.2300
     19 C19        -0.3239    1.7827   44.6477 C.3     1  ZINC000828026236    0.1500
     20 H20         2.0361    6.7715   46.0188 H       1  ZINC000828026236    0.1600
     21 H21         3.0239    4.2024   42.7559 H       1  ZINC000828026236    0.1800
     22 H22         1.6340    1.1076   46.1980 H       1  ZINC000828026236    0.0700
     23 H23         1.4744    2.3866   47.4245 H       1  ZINC000828026236    0.1100
     24 H24         0.4646    0.1311   48.0796 H       1  ZINC000828026236    0.1100
     25 H25        -0.6613    1.5105   48.1687 H       1  ZINC000828026236    0.1000
     26 H26        -3.0941   -1.8597   45.3314 H       1  ZINC000828026236    0.1800
     27 H27        -0.9983    2.3894   44.0433 H       1  ZINC000828026236    0.1200
     28 H28         0.4958    1.4161   44.0300 H       1  ZINC000828026236    0.1000
@<TRIPOS>BOND
     1     1     2    3
     2     2     3    1
     3     3     9   ar
     4     3     4   ar
     5     4     5   ar
     6     4    20    1
     7     5     6    1
     8     5     7   ar
     9     7     8   ar
    10     7    21    1
    11     8     9   ar
    12     9    10    1
    13    10    19    1
    14    10    11    1
    15    11    12    1
    16    11    22    1
    17    11    23    1
    18    12    13    1
    19    12    24    1
    20    12    25    1
    21    13    18    1
    22    13    14    1
    23    14    15    1
    24    14    16    2
    25    16    17    1
    26    16    26    1
    27    17    18    2
    28    18    19    1
    29    19    27    1
    30    19    28    1
@<TRIPOS>SUBSTRUCTURE
     1 ZINC000828026236        1 TEMP              0 ****  ****    0 ROOT


##########                                Name:    ZINC000569288350
##########                DOCK_Rotatable_Bonds:                   3
##########                         Heavy_Atoms:                  19
##########                    Molecular_Weight:             393.559
##########                DOCK_Rotatable_Bonds:                   3
##########                       Formal_Charge:           0.0299999
##########                     HBond_Acceptors:                   5
##########                        HBond_Donors:                   1
##########                         Heavy_Atoms:                  19
##########                          Grid_Score:          -23.762936
##########                     Grid_vdw_energy:          -23.300312
##########                      Grid_es_energy:           -0.462623
##########           Internal_energy_repulsive:           19.670748

@<TRIPOS>MOLECULE
ZINC000569288350
 26 27 1 0 0
SMALL
USER_CHARGES


@<TRIPOS>ATOM
      1 O1          0.0260    0.3218   48.6550 O.2     1  ZINC000569288350   -0.4800
      2 C2          0.1332    1.2212   47.8439 C.2     1  ZINC000569288350    0.5700
      3 N3         -0.6094    2.3384   47.9745 N.am    1  ZINC000569288350   -0.6600
      4 C4         -1.5076    2.4607   49.0402 C.ar    1  ZINC000569288350    0.1800
      5 C5         -1.3272    3.4561   49.9912 C.ar    1  ZINC000569288350   -0.1200
      6 C6         -2.2151    3.5756   51.0429 C.ar    1  ZINC000569288350   -0.0600
      7 C7         -3.2834    2.7051   51.1507 C.ar    1  ZINC000569288350   -0.1500
      8 C8         -3.4680    1.7102   50.2047 C.ar    1  ZINC000569288350    0.1300
      9 F9         -4.5134    0.8612   50.3124 F       1  ZINC000569288350   -0.1200
     10 C10        -2.5852    1.5898   49.1456 C.ar    1  ZINC000569288350   -0.1000
     11 Cl11       -2.8157    0.3439   47.9590 Cl      1  ZINC000569288350   -0.0400
     12 C12         1.0810    1.0922   46.7196 C.ar    1  ZINC000569288350   -0.1400
     13 C13         2.4591    1.1372   46.9533 C.ar    1  ZINC000569288350    0.1400
     14 F14         2.9285    1.2986   48.2099 F       1  ZINC000569288350   -0.1200
     15 C15         3.3399    1.0155   45.8940 C.ar    1  ZINC000569288350   -0.1300
     16 C16         2.8604    0.8504   44.6081 C.ar    1  ZINC000569288350   -0.0600
     17 C17         1.4975    0.8055   44.3703 C.ar    1  ZINC000569288350   -0.0900
     18 C18         0.6061    0.9186   45.4168 C.ar    1  ZINC000569288350   -0.0500
     19 I19        -1.4558    0.8501   45.0518 I       1  ZINC000569288350    0.0000
     20 H20        -0.5209    3.0576   47.3297 H       1  ZINC000569288350    0.4200
     21 H21        -0.4927    4.1369   49.9090 H       1  ZINC000569288350    0.1600
     22 H22        -2.0741    4.3501   51.7822 H       1  ZINC000569288350    0.1500
     23 H23        -3.9754    2.8005   51.9744 H       1  ZINC000569288350    0.1500
     24 H24         4.4047    1.0499   46.0719 H       1  ZINC000569288350    0.1500
     25 H25         3.5527    0.7562   43.7846 H       1  ZINC000569288350    0.1500
     26 H26         1.1309    0.6765   43.3626 H       1  ZINC000569288350    0.1500
@<TRIPOS>BOND
     1     1     2    2
     2     2     3   am
     3     2    12    1
     4     3     4    1
     5     3    20    1
     6     4    10   ar
     7     4     5   ar
     8     5     6   ar
     9     5    21    1
    10     6     7   ar
    11     6    22    1
    12     7     8   ar
    13     7    23    1
    14     8     9    1
    15     8    10   ar
    16    10    11    1
    17    12    18   ar
    18    12    13   ar
    19    13    14    1
    20    13    15   ar
    21    15    16   ar
    22    15    24    1
    23    16    17   ar
    24    16    25    1
    25    17    18   ar
    26    17    26    1
    27    18    19    1
@<TRIPOS>SUBSTRUCTURE
     1 ZINC000569288350        1 TEMP              0 ****  ****    0 ROOT


##########                                Name:    ZINC000550782577
##########                DOCK_Rotatable_Bonds:                   5
##########                         Heavy_Atoms:                  25
##########                    Molecular_Weight:              338.45
##########                DOCK_Rotatable_Bonds:                   5
##########                       Formal_Charge:         -0.00999954
##########                     HBond_Acceptors:                   4
##########                        HBond_Donors:                   0
##########                         Heavy_Atoms:                  25
##########                          Grid_Score:          -23.349754
##########                     Grid_vdw_energy:          -23.124298
##########                      Grid_es_energy:           -0.225456
##########           Internal_energy_repulsive:           17.736370

@<TRIPOS>MOLECULE
ZINC000550782577
 51 53 1 0 0
SMALL
USER_CHARGES


@<TRIPOS>ATOM
      1 C1        -15.5182   -2.9621   55.7722 C.3     1  ZINC000550782577    0.0700
      2 N2        -14.4655   -2.4625   56.6601 N.am    1  ZINC000550782577   -0.5900
      3 C3        -14.5912   -2.5949   57.9954 C.2     1  ZINC000550782577    0.5800
      4 O4        -15.5779   -3.1288   58.4631 O.2     1  ZINC000550782577   -0.5400
      5 C5        -13.5283   -2.0902   58.8920 C.ar    1  ZINC000550782577    0.0300
      6 C6        -13.5475   -0.7581   59.3031 C.ar    1  ZINC000550782577   -0.0600
      7 C7        -12.5479   -0.2975   60.1417 C.ar    1  ZINC000550782577   -0.1200
      8 C8        -11.5569   -1.1884   60.5438 C.ar    1  ZINC000550782577    0.1100
      9 O9        -10.5581   -0.7786   61.3663 O.3     1  ZINC000550782577   -0.3000
     10 C10        -9.3749   -0.2704   60.7467 C.3     1  ZINC000550782577    0.1000
     11 C11        -9.1785    1.1933   61.1463 C.3     1  ZINC000550782577   -0.2000
     12 C12        -8.1670   -1.0905   61.2043 C.3     1  ZINC000550782577   -0.1400
     13 C13        -9.5124   -0.3699   59.2261 C.3     1  ZINC000550782577   -0.2000
     14 C14       -11.6024   -2.5053   60.0927 C.ar    1  ZINC000550782577   -0.0100
     15 N15       -12.5685   -2.9122   59.3013 N.ar    1  ZINC000550782577   -0.4100
     16 C16       -13.2762   -1.8189   56.0966 C.3     1  ZINC000550782577    0.1400
     17 H17       -12.7056   -1.3410   56.8929 H       1  ZINC000550782577    0.1100
     18 C18       -12.4052   -2.8676   55.3951 C.3     1  ZINC000550782577   -0.1300
     19 C19       -11.0707   -2.2201   55.0308 C.3     1  ZINC000550782577   -0.0800
     20 C20       -11.2941   -0.9275   54.2904 C.ar    1  ZINC000550782577   -0.0800
     21 C21       -10.2319   -0.4070   53.5630 C.ar    1  ZINC000550782577   -0.1200
     22 C22       -10.3713    0.7766   52.8679 C.ar    1  ZINC000550782577   -0.1200
     23 C23       -11.5776    1.4510   52.8958 C.ar    1  ZINC000550782577   -0.1200
     24 C24       -12.6350    0.9342   53.6160 C.ar    1  ZINC000550782577   -0.1200
     25 C25       -12.4978   -0.2588   54.3133 C.ar    1  ZINC000550782577   -0.0700
     26 C26       -13.6970   -0.7729   55.0662 C.3     1  ZINC000550782577   -0.0900
     27 H27       -16.3085   -2.2160   55.6897 H       1  ZINC000550782577    0.0600
     28 H28       -15.0986   -3.1576   54.7853 H       1  ZINC000550782577    0.0600
     29 H29       -15.9307   -3.8846   56.1808 H       1  ZINC000550782577    0.1100
     30 H30       -14.3320   -0.0943   58.9711 H       1  ZINC000550782577    0.1600
     31 H31       -12.5367    0.7293   60.4763 H       1  ZINC000550782577    0.1500
     32 H32        -8.6797    1.2420   62.1142 H       1  ZINC000550782577    0.0700
     33 H33        -8.5670    1.6957   60.3968 H       1  ZINC000550782577    0.0800
     34 H34       -10.1490    1.6853   61.2126 H       1  ZINC000550782577    0.0800
     35 H35        -8.3070   -2.1333   60.9196 H       1  ZINC000550782577    0.0700
     36 H36        -7.2646   -0.7027   60.7317 H       1  ZINC000550782577    0.0800
     37 H37        -8.0691   -1.0196   62.2876 H       1  ZINC000550782577    0.0700
     38 H38       -10.3702    0.2181   58.8997 H       1  ZINC000550782577    0.0800
     39 H39        -8.6080    0.0135   58.7537 H       1  ZINC000550782577    0.0800
     40 H40        -9.6570   -1.4122   58.9418 H       1  ZINC000550782577    0.0700
     41 H41       -10.8365   -3.2015   60.4010 H       1  ZINC000550782577    0.1900
     42 H42       -12.2336   -3.7100   56.0652 H       1  ZINC000550782577    0.0700
     43 H43       -12.9046   -3.2136   54.4901 H       1  ZINC000550782577    0.0700
     44 H44       -10.5078   -2.0196   55.9424 H       1  ZINC000550782577    0.0800
     45 H45       -10.5008   -2.9020   54.3996 H       1  ZINC000550782577    0.0800
     46 H46        -9.2888   -0.9328   53.5416 H       1  ZINC000550782577    0.1200
     47 H47        -9.5408    1.1751   52.3041 H       1  ZINC000550782577    0.1200
     48 H48       -11.6920    2.3794   52.3559 H       1  ZINC000550782577    0.1200
     49 H49       -13.5770    1.4619   53.6375 H       1  ZINC000550782577    0.1200
     50 H50       -14.3971   -1.2233   54.3628 H       1  ZINC000550782577    0.0800
     51 H51       -14.1849    0.0581   55.5757 H       1  ZINC000550782577    0.0800
@<TRIPOS>BOND
     1     1     2    1
     2     1    27    1
     3     1    28    1
     4     1    29    1
     5     2     3   am
     6     2    16    1
     7     3     4    2
     8     3     5    1
     9     5    15   ar
    10     5     6   ar
    11     6     7   ar
    12     6    30    1
    13     7     8   ar
    14     7    31    1
    15     8     9    1
    16     8    14   ar
    17     9    10    1
    18    10    11    1
    19    10    12    1
    20    10    13    1
    21    11    32    1
    22    11    33    1
    23    11    34    1
    24    12    35    1
    25    12    36    1
    26    12    37    1
    27    13    38    1
    28    13    39    1
    29    13    40    1
    30    14    15   ar
    31    14    41    1
    32    16    17    1
    33    16    26    1
    34    16    18    1
    35    18    19    1
    36    18    42    1
    37    18    43    1
    38    19    20    1
    39    19    44    1
    40    19    45    1
    41    20    25   ar
    42    20    21   ar
    43    21    22   ar
    44    21    46    1
    45    22    23   ar
    46    22    47    1
    47    23    24   ar
    48    23    48    1
    49    24    25   ar
    50    24    49    1
    51    25    26    1
    52    26    50    1
    53    26    51    1
@<TRIPOS>SUBSTRUCTURE
     1 ZINC000550782577        1 TEMP              0 ****  ****    0 ROOT


##########                                Name:    ZINC000080099940
##########                DOCK_Rotatable_Bonds:                   4
##########                         Heavy_Atoms:                  26
##########                    Molecular_Weight:             343.388
##########                DOCK_Rotatable_Bonds:                   4
##########                       Formal_Charge:        -3.42727e-07
##########                     HBond_Acceptors:                   6
##########                        HBond_Donors:                   1
##########                         Heavy_Atoms:                  26
##########                          Grid_Score:          -23.304396
##########                     Grid_vdw_energy:          -24.145710
##########                      Grid_es_energy:            0.841314
##########           Internal_energy_repulsive:            2.699042

@<TRIPOS>MOLECULE
ZINC000080099940
 43 46 1 0 0
SMALL
USER_CHARGES


@<TRIPOS>ATOM
      1 C1          1.5186    3.1149   46.3064 C.3     1  ZINC000080099940   -0.1100
      2 C2          0.3234    2.8628   47.1892 C.2     1  ZINC000080099940   -0.0700
      3 C3          0.2206    3.4853   48.3941 C.2     1  ZINC000080099940   -0.0900
      4 C4         -0.9048    3.2371   49.2065 C.2     1  ZINC000080099940    0.2300
      5 N5         -1.2576    3.6940   50.3989 N.2     1  ZINC000080099940   -0.4800
      6 C6         -2.4338    3.1490   50.7481 C.2     1  ZINC000080099940    0.1000
      7 C7         -3.1692    3.4048   52.0111 C.ar    1  ZINC000080099940   -0.0200
      8 C8         -4.5506    3.5902   51.9891 C.ar    1  ZINC000080099940   -0.0800
      9 C9         -5.2321    3.8274   53.1639 C.ar    1  ZINC000080099940   -0.1200
     10 C10        -4.5426    3.8822   54.3696 C.ar    1  ZINC000080099940    0.1500
     11 N11        -5.2354    4.1232   55.5592 N.am    1  ZINC000080099940   -0.6500
     12 C12        -5.7450    3.0929   56.2629 C.2     1  ZINC000080099940    0.5700
     13 O13        -5.6022    1.9545   55.8631 O.2     1  ZINC000080099940   -0.5000
     14 C14        -6.4806    3.3489   57.5260 C.ar    1  ZINC000080099940    0.1300
     15 C15        -6.4915    4.6229   58.0948 C.ar    1  ZINC000080099940   -0.1700
     16 C16        -7.1950    4.8091   59.2765 C.ar    1  ZINC000080099940    0.1600
     17 N17        -7.8259    3.7819   59.8189 N.ar    1  ZINC000080099940   -0.5000
     18 C18        -7.7953    2.5899   59.2547 C.ar    1  ZINC000080099940    0.3200
     19 C19        -8.5307    1.4504   59.9119 C.3     1  ZINC000080099940   -0.0900
     20 N20        -7.1458    2.3681   58.1324 N.ar    1  ZINC000080099940   -0.5000
     21 C21        -3.1652    3.6973   54.3938 C.ar    1  ZINC000080099940   -0.1400
     22 C22        -2.4806    3.4546   53.2220 C.ar    1  ZINC000080099940   -0.0700
     23 C23        -2.8367    2.3214   49.7437 C.2     1  ZINC000080099940   -0.0900
     24 N24        -1.8774    2.3738   48.7711 N.pl3   1  ZINC000080099940   -0.3600
     25 C25        -1.7610    1.7558   47.5593 C.2     1  ZINC000080099940    0.0600
     26 C26        -0.6923    1.9883   46.7688 C.2     1  ZINC000080099940   -0.1400
     27 H27         1.4208    2.5355   45.3883 H       1  ZINC000080099940    0.0700
     28 H28         1.5729    4.1758   46.0626 H       1  ZINC000080099940    0.0800
     29 H29         2.4266    2.8154   46.8300 H       1  ZINC000080099940    0.0800
     30 H30         0.9937    4.1629   48.7256 H       1  ZINC000080099940    0.1500
     31 H31        -5.0866    3.5483   51.0524 H       1  ZINC000080099940    0.1300
     32 H32        -6.3024    3.9709   53.1473 H       1  ZINC000080099940    0.1400
     33 H33        -5.3493    5.0320   55.8784 H       1  ZINC000080099940    0.4200
     34 H34        -5.9657    5.4427   57.6278 H       1  ZINC000080099940    0.1600
     35 H35        -7.2264    5.7807   59.7471 H       1  ZINC000080099940    0.1800
     36 H36        -9.5513    1.4091   59.5315 H       1  ZINC000080099940    0.0900
     37 H37        -8.0216    0.5128   59.6889 H       1  ZINC000080099940    0.0900
     38 H38        -8.5510    1.6053   60.9907 H       1  ZINC000080099940    0.0900
     39 H39        -2.6315    3.7402   55.3317 H       1  ZINC000080099940    0.1300
     40 H40        -1.4104    3.3106   53.2414 H       1  ZINC000080099940    0.1400
     41 H41        -3.7429    1.7344   49.7203 H       1  ZINC000080099940    0.1900
     42 H42        -2.5340    1.0781   47.2282 H       1  ZINC000080099940    0.1700
     43 H43        -0.6133    1.4929   45.8123 H       1  ZINC000080099940    0.1500
@<TRIPOS>BOND
     1     1     2    1
     2     1    27    1
     3     1    28    1
     4     1    29    1
     5     2    26    1
     6     2     3    2
     7     3     4    1
     8     3    30    1
     9     4    24    1
    10     4     5    2
    11     5     6    1
    12     6     7    1
    13     6    23    2
    14     7    22   ar
    15     7     8   ar
    16     8     9   ar
    17     8    31    1
    18     9    10   ar
    19     9    32    1
    20    10    11    1
    21    10    21   ar
    22    11    12   am
    23    11    33    1
    24    12    13    2
    25    12    14    1
    26    14    20   ar
    27    14    15   ar
    28    15    16   ar
    29    15    34    1
    30    16    17   ar
    31    16    35    1
    32    17    18   ar
    33    18    19    1
    34    18    20   ar
    35    19    36    1
    36    19    37    1
    37    19    38    1
    38    21    22   ar
    39    21    39    1
    40    22    40    1
    41    23    24    1
    42    23    41    1
    43    24    25    1
    44    25    26    2
    45    25    42    1
    46    26    43    1
@<TRIPOS>SUBSTRUCTURE
     1 ZINC000080099940        1 TEMP              0 ****  ****    0 ROOT


##########                                Name:    ZINC001010141213
##########                DOCK_Rotatable_Bonds:                   4
##########                         Heavy_Atoms:                  24
##########                    Molecular_Weight:             330.346
##########                DOCK_Rotatable_Bonds:                   4
##########                       Formal_Charge:          -0.0100003
##########                     HBond_Acceptors:                   9
##########                        HBond_Donors:                   1
##########                         Heavy_Atoms:                  24
##########                          Grid_Score:          -23.011230
##########                     Grid_vdw_energy:          -21.236208
##########                      Grid_es_energy:           -1.775023
##########           Internal_energy_repulsive:           14.143414

@<TRIPOS>MOLECULE
ZINC001010141213
 42 44 1 0 0
SMALL
USER_CHARGES


@<TRIPOS>ATOM
      1 C1         -6.0617    2.1976   56.1666 C.3     1  ZINC001010141213   -0.0800
      2 C2         -7.0454    3.1980   56.7168 C.2     1  ZINC001010141213   -0.1500
      3 C3         -8.3135    2.9440   57.2096 C.2     1  ZINC001010141213   -0.0400
      4 C4         -8.9790    1.6347   57.3030 C.2     1  ZINC001010141213    0.6000
      5 O5         -9.5930    1.1952   56.3496 O.2     1  ZINC001010141213   -0.5100
      6 N6         -8.9079    0.9226   58.4452 N.am    1  ZINC001010141213   -0.6100
      7 C7         -8.1746    1.4439   59.6071 C.3     1  ZINC001010141213    0.0900
      8 C8         -9.1202    1.4643   60.8145 C.3     1  ZINC001010141213    0.0700
      9 N9         -9.7750    0.1529   60.9204 N.am    1  ZINC001010141213   -0.6000
     10 C10        -9.7048   -0.5587   62.0627 C.2     1  ZINC001010141213    0.5900
     11 O11       -10.2505   -1.6422   62.1383 O.2     1  ZINC001010141213   -0.5200
     12 C12        -8.9638   -0.0213   63.2243 C.2     1  ZINC001010141213    0.0300
     13 N13        -7.7507   -0.4539   63.4844 N.2     1  ZINC001010141213   -0.1800
     14 N14        -7.0667   -0.0191   64.4801 N.am    1  ZINC001010141213   -0.4400
     15 C15        -7.5531    0.9113   65.3225 C.2     1  ZINC001010141213    0.4800
     16 O16        -6.8780    1.3043   66.2594 O.2     1  ZINC001010141213   -0.5100
     17 C17        -8.8506    1.4297   65.1141 C.2     1  ZINC001010141213   -0.1800
     18 C18        -9.5617    0.9619   64.0491 C.2     1  ZINC001010141213   -0.0400
     19 C19       -10.5084   -0.3684   59.7583 C.3     1  ZINC001010141213    0.1000
     20 C20        -9.5675   -0.3863   58.5528 C.3     1  ZINC001010141213    0.1000
     21 N21        -8.8236    4.1521   57.5921 N.pl3   1  ZINC001010141213   -0.2700
     22 C22       -10.1510    4.3616   58.1754 C.3     1  ZINC001010141213    0.0900
     23 N23        -7.9616    5.0763   57.3627 N.2     1  ZINC001010141213   -0.2800
     24 C24        -6.8688    4.5777   56.8433 C.2     1  ZINC001010141213    0.0100
     25 H25        -5.4360    1.8207   56.9756 H       1  ZINC001010141213    0.0700
     26 H26        -6.6031    1.3691   55.7099 H       1  ZINC001010141213    0.0600
     27 H27        -5.4347    2.6794   55.4165 H       1  ZINC001010141213    0.0700
     28 H28        -7.3221    0.7992   59.8211 H       1  ZINC001010141213    0.0800
     29 H29        -7.8278    2.4556   59.3971 H       1  ZINC001010141213    0.1000
     30 H30        -8.5503    1.6630   61.7222 H       1  ZINC001010141213    0.1400
     31 H31        -9.8739    2.2395   60.6759 H       1  ZINC001010141213    0.0800
     32 H32        -6.1751   -0.3709   64.6296 H       1  ZINC001010141213    0.4500
     33 H33        -9.2645    2.1767   65.7751 H       1  ZINC001010141213    0.1700
     34 H34       -10.5579    1.3256   63.8451 H       1  ZINC001010141213    0.1700
     35 H35       -10.8553   -1.3801   59.9684 H       1  ZINC001010141213    0.1100
     36 H36       -11.3609    0.2763   59.5444 H       1  ZINC001010141213    0.0800
     37 H37       -10.1386   -0.5850   57.6459 H       1  ZINC001010141213    0.1100
     38 H38        -8.8124   -1.1603   58.6896 H       1  ZINC001010141213    0.0800
     39 H39       -10.0733    4.3684   59.2626 H       1  ZINC001010141213    0.0900
     40 H40       -10.5515    5.3161   57.8337 H       1  ZINC001010141213    0.1000
     41 H41       -10.8161    3.5562   57.8638 H       1  ZINC001010141213    0.0900
     42 H42        -5.9893    5.1351   56.5568 H       1  ZINC001010141213    0.1900
@<TRIPOS>BOND
     1     1     2    1
     2     1    25    1
     3     1    26    1
     4     1    27    1
     5     2    24    1
     6     2     3    2
     7     3     4    1
     8     3    21    1
     9     4     5    2
    10     4     6   am
    11     6    20    1
    12     6     7    1
    13     7     8    1
    14     7    28    1
    15     7    29    1
    16     8     9    1
    17     8    30    1
    18     8    31    1
    19     9    10   am
    20     9    19    1
    21    10    11    2
    22    10    12    1
    23    12    18    1
    24    12    13    2
    25    13    14    1
    26    14    15   am
    27    14    32    1
    28    15    16    2
    29    15    17    1
    30    17    18    2
    31    17    33    1
    32    18    34    1
    33    19    20    1
    34    19    35    1
    35    19    36    1
    36    20    37    1
    37    20    38    1
    38    21    22    1
    39    21    23    1
    40    22    39    1
    41    22    40    1
    42    22    41    1
    43    23    24    2
    44    24    42    1
@<TRIPOS>SUBSTRUCTURE
     1 ZINC001010141213        1 TEMP              0 ****  ****    0 ROOT


##########                                Name:    ZINC001135312623
##########                DOCK_Rotatable_Bonds:                   3
##########                         Heavy_Atoms:                  25
##########                    Molecular_Weight:             341.323
##########                DOCK_Rotatable_Bonds:                   3
##########                       Formal_Charge:        -1.78814e-07
##########                     HBond_Acceptors:                   8
##########                        HBond_Donors:                   2
##########                         Heavy_Atoms:                  25
##########                          Grid_Score:          -22.699442
##########                     Grid_vdw_energy:          -21.955626
##########                      Grid_es_energy:           -0.743816
##########           Internal_energy_repulsive:            4.635332

@<TRIPOS>MOLECULE
ZINC001135312623
 40 42 1 0 0
SMALL
USER_CHARGES


@<TRIPOS>ATOM
      1 C1         -8.9402    1.2818   60.5812 C.3     1  ZINC001135312623   -0.1300
      2 C2         -9.8324    0.2761   59.9004 C.ar    1  ZINC001135312623   -0.0600
      3 C3        -10.8891   -0.2874   60.5877 C.ar    1  ZINC001135312623   -0.1000
      4 C4        -11.7081   -1.2109   59.9638 C.ar    1  ZINC001135312623   -0.0300
      5 C5        -12.8605   -1.8239   60.7170 C.3     1  ZINC001135312623   -0.1300
      6 C6        -11.4722   -1.5725   58.6503 C.ar    1  ZINC001135312623   -0.0200
      7 N7        -12.3512   -2.5612   57.9864 N.pl3   1  ZINC001135312623    0.0200
      8 O8        -11.8842   -3.3490   57.1834 O.2     1  ZINC001135312623   -0.1500
      9 O9        -13.5416   -2.5871   58.2431 O.2     1  ZINC001135312623   -0.1500
     10 C10       -10.4174   -1.0119   57.9568 C.ar    1  ZINC001135312623   -0.0700
     11 C11        -9.5960   -0.0808   58.5788 C.ar    1  ZINC001135312623    0.1500
     12 N12        -8.5273    0.4888   57.8795 N.am    1  ZINC001135312623   -0.6600
     13 C13        -8.7000    1.6460   57.2104 C.2     1  ZINC001135312623    0.5600
     14 O14        -9.7852    2.1946   57.2148 O.2     1  ZINC001135312623   -0.5000
     15 C15        -7.5723    2.2470   56.4726 C.ar    1  ZINC001135312623   -0.1600
     16 C16        -7.8154    3.0449   55.3514 C.ar    1  ZINC001135312623   -0.0400
     17 C17        -6.7621    3.6053   54.6625 C.ar    1  ZINC001135312623   -0.1500
     18 C18        -5.4585    3.3767   55.0841 C.ar    1  ZINC001135312623    0.2000
     19 N19        -4.3773    3.9318   54.3992 N.am    1  ZINC001135312623   -0.6700
     20 C20        -3.1345    3.4570   54.6170 C.2     1  ZINC001135312623    0.6600
     21 O21        -2.1908    3.9579   54.0382 O.2     1  ZINC001135312623   -0.4900
     22 O22        -2.9263    2.4357   55.4673 O.3     1  ZINC001135312623   -0.3400
     23 C23        -3.7867    2.3551   56.6367 C.3     1  ZINC001135312623    0.1100
     24 C24        -5.2135    2.5825   56.2033 C.ar    1  ZINC001135312623   -0.1800
     25 C25        -6.2585    2.0239   56.8978 C.ar    1  ZINC001135312623    0.0000
     26 H26        -9.3409    2.2841   60.4299 H       1  ZINC001135312623    0.0900
     27 H27        -8.8967    1.0652   61.6486 H       1  ZINC001135312623    0.0800
     28 H28        -7.9376    1.2237   60.1574 H       1  ZINC001135312623    0.0700
     29 H29       -11.0761   -0.0070   61.6137 H       1  ZINC001135312623    0.1500
     30 H30       -13.7288   -1.1685   60.6489 H       1  ZINC001135312623    0.0900
     31 H31       -13.1027   -2.7942   60.2836 H       1  ZINC001135312623    0.0800
     32 H32       -12.5834   -1.9523   61.7633 H       1  ZINC001135312623    0.0800
     33 H33       -10.2337   -1.2949   56.9308 H       1  ZINC001135312623    0.1700
     34 H34        -7.6617    0.0512   57.8760 H       1  ZINC001135312623    0.4200
     35 H35        -8.8294    3.2221   55.0244 H       1  ZINC001135312623    0.1400
     36 H36        -6.9497    4.2213   53.7957 H       1  ZINC001135312623    0.1500
     37 H37        -4.5191    4.6556   53.7693 H       1  ZINC001135312623    0.4300
     38 H38        -3.6953    1.3684   57.0907 H       1  ZINC001135312623    0.1300
     39 H39        -3.4971    3.1201   57.3573 H       1  ZINC001135312623    0.1000
     40 H40        -6.0663    1.4116   57.7666 H       1  ZINC001135312623    0.1500
@<TRIPOS>BOND
     1     1     2    1
     2     1    26    1
     3     1    27    1
     4     1    28    1
     5     2    11   ar
     6     2     3   ar
     7     3     4   ar
     8     3    29    1
     9     4     5    1
    10     4     6   ar
    11     5    30    1
    12     5    31    1
    13     5    32    1
    14     6     7    1
    15     6    10   ar
    16     7     8    2
    17     7     9    2
    18    10    11   ar
    19    10    33    1
    20    11    12    1
    21    12    13   am
    22    12    34    1
    23    13    14    2
    24    13    15    1
    25    15    25   ar
    26    15    16   ar
    27    16    17   ar
    28    16    35    1
    29    17    18   ar
    30    17    36    1
    31    18    24   ar
    32    18    19    1
    33    19    20   am
    34    19    37    1
    35    20    21    2
    36    20    22    1
    37    22    23    1
    38    23    24    1
    39    23    38    1
    40    23    39    1
    41    24    25   ar
    42    25    40    1
@<TRIPOS>SUBSTRUCTURE
     1 ZINC001135312623        1 TEMP              0 ****  ****    0 ROOT


##########                                Name:    ZINC001091652821
##########                DOCK_Rotatable_Bonds:                   4
##########                         Heavy_Atoms:                  24
##########                    Molecular_Weight:             345.465
##########                DOCK_Rotatable_Bonds:                   4
##########                       Formal_Charge:          -0.0199997
##########                     HBond_Acceptors:                   6
##########                        HBond_Donors:                   0
##########                         Heavy_Atoms:                  24
##########                          Grid_Score:          -22.680866
##########                     Grid_vdw_energy:          -21.319921
##########                      Grid_es_energy:           -1.360945
##########           Internal_energy_repulsive:            6.639596

@<TRIPOS>MOLECULE
ZINC001091652821
 47 50 1 0 0
SMALL
USER_CHARGES


@<TRIPOS>ATOM
      1 C1         -1.7012    3.1478   57.7728 C.3     1  ZINC001091652821   -0.1000
      2 C2         -0.7845    2.9693   56.5901 C.2     1  ZINC001091652821   -0.1200
      3 C3          0.0207    1.9086   56.4593 C.2     1  ZINC001091652821   -0.2400
      4 S4          0.9268    2.0044   55.0168 S.3     1  ZINC001091652821    0.2100
      5 C5          0.1771    3.5368   54.5909 C.2     1  ZINC001091652821   -0.2700
      6 C6          0.4627    4.3166   53.3830 C.2     1  ZINC001091652821    0.6100
      7 O7          1.6038    4.6605   53.1364 O.2     1  ZINC001091652821   -0.5200
      8 N8         -0.5385    4.6527   52.5456 N.am    1  ZINC001091652821   -0.6200
      9 C9         -0.4197    5.4217   51.2960 C.3     1  ZINC001091652821    0.0900
     10 C10        -1.5195    4.8983   50.3578 C.3     1  ZINC001091652821   -0.0900
     11 H11        -1.9842    5.7006   49.7846 H       1  ZINC001091652821    0.1100
     12 C12        -0.9262    3.8037   49.4463 C.3     1  ZINC001091652821    0.0400
     13 N13        -1.9492    2.7269   49.4357 N.3     1  ZINC001091652821   -0.5000
     14 C14        -1.3577    1.4428   49.0372 C.3     1  ZINC001091652821    0.1200
     15 C15        -0.4202    1.6598   47.8776 C.2     1  ZINC001091652821    0.0000
     16 C16        -0.7275    2.2462   46.7087 C.2     1  ZINC001091652821   -0.0800
     17 O17         0.3896    2.2381   45.9552 O.3     1  ZINC001091652821   -0.2000
     18 C18         1.3593    1.6505   46.6687 C.2     1  ZINC001091652821    0.1900
     19 C19         2.7772    1.4302   46.2080 C.3     1  ZINC001091652821   -0.0600
     20 N20         0.8764    1.3066   47.8284 N.2     1  ZINC001091652821   -0.4700
     21 C21        -2.4387    2.6755   50.8371 C.3     1  ZINC001091652821    0.0400
     22 C22        -2.5343    4.1759   51.2811 C.3     1  ZINC001091652821   -0.0700
     23 C23        -3.9588    4.7210   51.1602 C.3     1  ZINC001091652821   -0.1300
     24 C24        -1.9635    4.3170   52.6987 C.3     1  ZINC001091652821    0.1200
     25 C25        -0.7188    3.8815   55.5636 C.2     1  ZINC001091652821   -0.0500
     26 H26        -2.6640    2.6835   57.5596 H       1  ZINC001091652821    0.0700
     27 H27        -1.2575    2.6776   58.6505 H       1  ZINC001091652821    0.0700
     28 H28        -1.8450    4.2112   57.9639 H       1  ZINC001091652821    0.0700
     29 H29         0.0885    1.1000   57.1721 H       1  ZINC001091652821    0.1700
     30 H30        -0.5707    6.4829   51.4941 H       1  ZINC001091652821    0.0800
     31 H31         0.5613    5.2600   50.8492 H       1  ZINC001091652821    0.0800
     32 H32        -0.7718    4.1907   48.4390 H       1  ZINC001091652821    0.0800
     33 H33         0.0116    3.4325   49.8594 H       1  ZINC001091652821    0.0500
     34 H34        -0.8054    1.0209   49.8769 H       1  ZINC001091652821    0.0500
     35 H35        -2.1493    0.7546   48.7406 H       1  ZINC001091652821    0.1000
     36 H36        -1.6892    2.6484   46.4260 H       1  ZINC001091652821    0.2100
     37 H37         2.8966    1.8236   45.1984 H       1  ZINC001091652821    0.0900
     38 H38         3.4623    1.9448   46.8818 H       1  ZINC001091652821    0.1000
     39 H39         2.9984    0.3628   46.2105 H       1  ZINC001091652821    0.1000
     40 H40        -3.4243    2.2119   50.8784 H       1  ZINC001091652821    0.0900
     41 H41        -1.7348    2.1298   51.4655 H       1  ZINC001091652821    0.0500
     42 H42        -4.6232    4.1476   51.8065 H       1  ZINC001091652821    0.0600
     43 H43        -3.9737    5.7685   51.4613 H       1  ZINC001091652821    0.0600
     44 H44        -4.2941    4.6352   50.1266 H       1  ZINC001091652821    0.0700
     45 H45        -2.0527    3.3715   53.2337 H       1  ZINC001091652821    0.0900
     46 H46        -2.4914    5.1036   53.2379 H       1  ZINC001091652821    0.0800
     47 H47        -1.3104    4.7844   55.5329 H       1  ZINC001091652821    0.1500
@<TRIPOS>BOND
     1     1     2    1
     2     1    26    1
     3     1    27    1
     4     1    28    1
     5     2    25    1
     6     2     3    2
     7     3     4    1
     8     3    29    1
     9     4     5    1
    10     5     6    1
    11     5    25    2
    12     6     7    2
    13     6     8   am
    14     8    24    1
    15     8     9    1
    16     9    10    1
    17     9    30    1
    18     9    31    1
    19    10    11    1
    20    10    22    1
    21    10    12    1
    22    12    13    1
    23    12    32    1
    24    12    33    1
    25    13    14    1
    26    13    21    1
    27    14    15    1
    28    14    34    1
    29    14    35    1
    30    15    20    1
    31    15    16    2
    32    16    17    1
    33    16    36    1
    34    17    18    1
    35    18    19    1
    36    18    20    2
    37    19    37    1
    38    19    38    1
    39    19    39    1
    40    21    22    1
    41    21    40    1
    42    21    41    1
    43    22    23    1
    44    22    24    1
    45    23    42    1
    46    23    43    1
    47    23    44    1
    48    24    45    1
    49    24    46    1
    50    25    47    1
@<TRIPOS>SUBSTRUCTURE
     1 ZINC001091652821        1 TEMP              0 ****  ****    0 ROOT


##########                                Name:    ZINC000864477301
##########                DOCK_Rotatable_Bonds:                   6
##########                         Heavy_Atoms:                  26
##########                    Molecular_Weight:             393.891
##########                DOCK_Rotatable_Bonds:                   6
##########                       Formal_Charge:         -0.00999978
##########                     HBond_Acceptors:                   7
##########                        HBond_Donors:                   1
##########                         Heavy_Atoms:                  26
##########                          Grid_Score:          -22.292784
##########                     Grid_vdw_energy:          -21.123713
##########                      Grid_es_energy:           -1.169072
##########           Internal_energy_repulsive:            9.532632

@<TRIPOS>MOLECULE
ZINC000864477301
 46 47 1 0 0
SMALL
USER_CHARGES


@<TRIPOS>ATOM
      1 C1        -13.9606   -0.0008   62.9544 C.3     1  ZINC000864477301   -0.1500
      2 C2        -13.9790   -0.3340   61.4613 C.3     1  ZINC000864477301    0.0600
      3 O3        -13.9828   -1.7754   61.2870 O.3     1  ZINC000864477301   -0.3500
      4 C4        -13.6059   -2.2470   60.0827 C.2     1  ZINC000864477301    0.5100
      5 O5        -14.2460   -3.1308   59.5491 O.2     1  ZINC000864477301   -0.5000
      6 C6        -12.4143   -1.6895   59.4110 C.ar    1  ZINC000864477301   -0.1400
      7 C7        -11.1486   -1.8560   59.9762 C.ar    1  ZINC000864477301   -0.0300
      8 C8        -10.0398   -1.3326   59.3435 C.ar    1  ZINC000864477301   -0.1500
      9 C9        -10.1802   -0.6437   58.1521 C.ar    1  ZINC000864477301   -0.0100
     10 C10       -11.4318   -0.4749   57.5863 C.ar    1  ZINC000864477301   -0.4900
     11 S11       -11.5991    0.4043   56.0685 S.o     1  ZINC000864477301    1.3800
     12 O12       -12.9457    0.8566   56.1078 O.2     1  ZINC000864477301   -0.8100
     13 C13       -11.4362   -0.9018   54.8203 C.3     1  ZINC000864477301   -0.4600
     14 H14       -10.4312   -1.3215   54.8628 H       1  ZINC000864477301    0.1400
     15 C15       -12.4611   -2.0032   55.0979 C.3     1  ZINC000864477301   -0.1400
     16 C16       -11.6807   -0.3215   53.4512 C.2     1  ZINC000864477301    0.5500
     17 O17       -11.2675   -0.8963   52.4663 O.2     1  ZINC000864477301   -0.5100
     18 N18       -12.3584    0.8361   53.3211 N.am    1  ZINC000864477301   -0.6800
     19 C19       -12.5856    1.3751   52.0493 C.ar    1  ZINC000864477301    0.1400
     20 C20       -11.8326    2.4539   51.6065 C.ar    1  ZINC000864477301   -0.0600
     21 C21       -10.7691    3.0466   52.4945 C.3     1  ZINC000864477301   -0.1100
     22 C22       -12.0586    2.9834   50.3505 C.ar    1  ZINC000864477301   -0.1100
     23 C23       -13.0336    2.4404   49.5345 C.ar    1  ZINC000864477301   -0.1000
     24 C24       -13.7864    1.3658   49.9722 C.ar    1  ZINC000864477301   -0.1100
     25 C25       -13.5615    0.8276   51.2248 C.ar    1  ZINC000864477301   -0.0200
     26 Cl26      -14.5061   -0.5215   51.7736 Cl      1  ZINC000864477301   -0.0600
     27 C27       -12.5479   -0.9983   58.2049 C.ar    1  ZINC000864477301    0.0100
     28 H28       -14.8454   -0.4221   63.4316 H       1  ZINC000864477301    0.0700
     29 H29       -13.0656   -0.4242   63.4102 H       1  ZINC000864477301    0.0700
     30 H30       -13.9578    1.0813   63.0852 H       1  ZINC000864477301    0.0800
     31 H31       -14.8740    0.0894   61.0055 H       1  ZINC000864477301    0.0700
     32 H32       -13.0942    0.0873   60.9840 H       1  ZINC000864477301    0.0700
     33 H33       -11.0377   -2.3930   60.9066 H       1  ZINC000864477301    0.1400
     34 H34        -9.0601   -1.4607   59.7796 H       1  ZINC000864477301    0.1400
     35 H35        -9.3091   -0.2354   57.6614 H       1  ZINC000864477301    0.1500
     36 H36       -12.3631   -2.7881   54.3478 H       1  ZINC000864477301    0.0700
     37 H37       -12.2842   -2.4230   56.0882 H       1  ZINC000864477301    0.0700
     38 H38       -13.4662   -1.5835   55.0554 H       1  ZINC000864477301    0.0700
     39 H39       -12.6888    1.2959   54.1088 H       1  ZINC000864477301    0.4100
     40 H40        -9.8201    2.5428   52.3109 H       1  ZINC000864477301    0.0800
     41 H41       -10.6644    4.1094   52.2764 H       1  ZINC000864477301    0.0700
     42 H42       -11.0535    2.9163   53.5387 H       1  ZINC000864477301    0.0700
     43 H43       -11.4732    3.8230   50.0059 H       1  ZINC000864477301    0.1400
     44 H44       -13.2081    2.8564   48.5534 H       1  ZINC000864477301    0.1400
     45 H45       -14.5476    0.9440   49.3324 H       1  ZINC000864477301    0.1400
     46 H46       -13.5242   -0.8662   57.7622 H       1  ZINC000864477301    0.1400
@<TRIPOS>BOND
     1     1     2    1
     2     1    28    1
     3     1    29    1
     4     1    30    1
     5     2     3    1
     6     2    31    1
     7     2    32    1
     8     3     4    1
     9     4     5    2
    10     4     6    1
    11     6    27   ar
    12     6     7   ar
    13     7     8   ar
    14     7    33    1
    15     8     9   ar
    16     8    34    1
    17     9    10   ar
    18     9    35    1
    19    10    11    1
    20    10    27   ar
    21    11    12    2
    22    11    13    1
    23    13    14    1
    24    13    15    1
    25    13    16    1
    26    15    36    1
    27    15    37    1
    28    15    38    1
    29    16    17    2
    30    16    18   am
    31    18    19    1
    32    18    39    1
    33    19    25   ar
    34    19    20   ar
    35    20    21    1
    36    20    22   ar
    37    21    40    1
    38    21    41    1
    39    21    42    1
    40    22    23   ar
    41    22    43    1
    42    23    24   ar
    43    23    44    1
    44    24    25   ar
    45    24    45    1
    46    25    26    1
    47    27    46    1
@<TRIPOS>SUBSTRUCTURE
     1 ZINC000864477301        1 TEMP              0 ****  ****    0 ROOT


##########                                Name:    ZINC001076281847
##########                DOCK_Rotatable_Bonds:                   4
##########                         Heavy_Atoms:                  24
##########                    Molecular_Weight:             362.883
##########                DOCK_Rotatable_Bonds:                   4
##########                       Formal_Charge:         -0.00999959
##########                     HBond_Acceptors:                   7
##########                        HBond_Donors:                   0
##########                         Heavy_Atoms:                  24
##########                          Grid_Score:          -22.214918
##########                     Grid_vdw_energy:          -21.157671
##########                      Grid_es_energy:           -1.057247
##########           Internal_energy_repulsive:           17.283983

@<TRIPOS>MOLECULE
ZINC001076281847
 43 46 1 0 0
SMALL
USER_CHARGES


@<TRIPOS>ATOM
      1 C1         -5.9816    6.1761   52.7180 C.3     1  ZINC001076281847   -0.0900
      2 C2         -4.5217    6.0209   52.3776 C.2     1  ZINC001076281847    0.1400
      3 N3         -3.5991    6.0824   53.2925 N.2     1  ZINC001076281847   -0.4600
      4 S4         -2.1080    5.8626   52.5147 S.3     1  ZINC001076281847    0.2500
      5 C5         -2.7641    5.6874   50.9339 C.2     1  ZINC001076281847   -0.2100
      6 C6         -2.0062    5.4504   49.6529 C.3     1  ZINC001076281847    0.1200
      7 N7         -0.6099    5.1172   49.9646 N.3     1  ZINC001076281847   -0.5000
      8 C8          0.2758    5.4506   48.8382 C.3     1  ZINC001076281847    0.0300
      9 C9          1.3190    4.3212   48.7428 C.3     1  ZINC001076281847   -0.1000
     10 H10         2.2570    4.5541   49.2469 H       1  ZINC001076281847    0.1200
     11 C11         1.4975    3.9499   47.2472 C.3     1  ZINC001076281847   -0.1300
     12 C12         0.1892    3.1742   46.9560 C.3     1  ZINC001076281847    0.1000
     13 N13        -0.0771    2.4088   48.1872 N.am    1  ZINC001076281847   -0.6000
     14 C14        -0.7984    1.2730   48.2642 C.2     1  ZINC001076281847    0.5700
     15 O15        -0.9544    0.7238   49.3369 O.2     1  ZINC001076281847   -0.4900
     16 C16        -1.4011    0.6944   47.0417 C.ar    1  ZINC001076281847   -0.0800
     17 C17        -1.9672    1.5154   46.0616 C.ar    1  ZINC001076281847   -0.1800
     18 C18        -2.5181    0.9335   44.9364 C.ar    1  ZINC001076281847    0.1000
     19 N19        -2.5151   -0.3752   44.7799 N.ar    1  ZINC001076281847   -0.4500
     20 C20        -1.9928   -1.1862   45.6778 C.ar    1  ZINC001076281847    0.1100
     21 C21        -1.4149   -0.6894   46.8320 C.ar    1  ZINC001076281847   -0.0500
     22 Cl22       -0.7290   -1.7662   48.0085 Cl      1  ZINC001076281847   -0.0100
     23 C23         0.5805    3.0916   49.3372 C.3     1  ZINC001076281847    0.1000
     24 H24         1.2610    2.4195   49.8602 H       1  ZINC001076281847    0.1100
     25 C25        -0.4680    3.6891   50.2857 C.3     1  ZINC001076281847    0.0200
     26 C26        -4.1022    5.8017   51.0834 C.2     1  ZINC001076281847   -0.1800
     27 H27        -6.4262    5.1922   52.8679 H       1  ZINC001076281847    0.0700
     28 H28        -6.0814    6.7629   53.6311 H       1  ZINC001076281847    0.0800
     29 H29        -6.4931    6.6853   51.9012 H       1  ZINC001076281847    0.0900
     30 H30        -2.4638    4.6251   49.1075 H       1  ZINC001076281847    0.1000
     31 H31        -2.0367    6.3517   49.0408 H       1  ZINC001076281847    0.1000
     32 H32        -0.3003    5.5048   47.9144 H       1  ZINC001076281847    0.0600
     33 H33         0.7731    6.4025   49.0242 H       1  ZINC001076281847    0.0900
     34 H34         1.5663    4.8448   46.6287 H       1  ZINC001076281847    0.0900
     35 H35         2.3694    3.3114   47.1051 H       1  ZINC001076281847    0.0800
     36 H36        -0.6271    3.8685   46.7567 H       1  ZINC001076281847    0.0800
     37 H37         0.3285    2.4988   46.1120 H       1  ZINC001076281847    0.0800
     38 H38        -1.9739    2.5886   46.1826 H       1  ZINC001076281847    0.1800
     39 H39        -2.9579    1.5599   44.1744 H       1  ZINC001076281847    0.1700
     40 H40        -2.0124   -2.2526   45.5080 H       1  ZINC001076281847    0.1700
     41 H41        -0.1475    3.5579   51.3192 H       1  ZINC001076281847    0.1000
     42 H42        -1.4277    3.1958   50.1321 H       1  ZINC001076281847    0.0700
     43 H43        -4.7889    5.7333   50.2525 H       1  ZINC001076281847    0.1400
@<TRIPOS>BOND
     1     1     2    1
     2     1    27    1
     3     1    28    1
     4     1    29    1
     5     2    26    1
     6     2     3    2
     7     3     4    1
     8     4     5    1
     9     5     6    1
    10     5    26    2
    11     6     7    1
    12     6    30    1
    13     6    31    1
    14     7    25    1
    15     7     8    1
    16     8     9    1
    17     8    32    1
    18     8    33    1
    19     9    10    1
    20     9    23    1
    21     9    11    1
    22    11    12    1
    23    11    34    1
    24    11    35    1
    25    12    13    1
    26    12    36    1
    27    12    37    1
    28    13    14   am
    29    13    23    1
    30    14    15    2
    31    14    16    1
    32    16    21   ar
    33    16    17   ar
    34    17    18   ar
    35    17    38    1
    36    18    19   ar
    37    18    39    1
    38    19    20   ar
    39    20    21   ar
    40    20    40    1
    41    21    22    1
    42    23    24    1
    43    23    25    1
    44    25    41    1
    45    25    42    1
    46    26    43    1
@<TRIPOS>SUBSTRUCTURE
     1 ZINC001076281847        1 TEMP              0 ****  ****    0 ROOT


##########                                Name:    ZINC000446721380
##########                DOCK_Rotatable_Bonds:                   8
##########                         Heavy_Atoms:                  26
##########                    Molecular_Weight:             419.318
##########                DOCK_Rotatable_Bonds:                   8
##########                       Formal_Charge:           0.0199992
##########                     HBond_Acceptors:                   5
##########                        HBond_Donors:                   2
##########                         Heavy_Atoms:                  26
##########                          Grid_Score:          -22.189571
##########                     Grid_vdw_energy:          -21.443874
##########                      Grid_es_energy:           -0.745697
##########           Internal_energy_repulsive:          163.575211

@<TRIPOS>MOLECULE
ZINC000446721380
 49 51 1 0 0
SMALL
USER_CHARGES


@<TRIPOS>ATOM
      1 C1          2.3934    4.0996   42.9309 C.3     1  ZINC000446721380   -0.1200
      2 C2          2.0509    3.8253   44.3727 C.ar    1  ZINC000446721380   -0.0300
      3 C3          2.8754    4.2923   45.3793 C.ar    1  ZINC000446721380   -0.1600
      4 C4          2.5639    4.0423   46.7032 C.ar    1  ZINC000446721380   -0.0500
      5 C5          1.4277    3.3250   47.0230 C.ar    1  ZINC000446721380   -0.1500
      6 C6          1.0886    3.0533   48.4660 C.3     1  ZINC000446721380    0.1900
      7 N7         -0.0824    3.8454   48.8499 N.am    1  ZINC000446721380   -0.7300
      8 C8         -0.1347    4.4252   50.0655 C.2     1  ZINC000446721380    0.7100
      9 O9          0.7906    4.2921   50.8429 O.2     1  ZINC000446721380   -0.5700
     10 N10        -1.2128    5.1526   50.4193 N.am    1  ZINC000446721380   -0.6900
     11 C11        -1.2671    5.7548   51.6819 C.ar    1  ZINC000446721380    0.2000
     12 C12        -0.2085    5.6094   52.5679 C.ar    1  ZINC000446721380   -0.1200
     13 C13        -0.2649    6.2054   53.8131 C.ar    1  ZINC000446721380   -0.0800
     14 C14        -1.3739    6.9460   54.1775 C.ar    1  ZINC000446721380   -0.1300
     15 C15        -2.4308    7.0928   53.2976 C.ar    1  ZINC000446721380   -0.0700
     16 C16        -2.3784    6.5042   52.0487 C.ar    1  ZINC000446721380   -0.1300
     17 Br17       -3.8234    6.7057   50.8457 Br      1  ZINC000446721380   -0.0500
     18 C18         0.5985    2.8552   46.0145 C.ar    1  ZINC000446721380    0.1500
     19 O19        -0.5202    2.1496   46.3266 O.3     1  ZINC000446721380   -0.3100
     20 C20        -0.7880    0.9809   45.5493 C.3     1  ZINC000446721380    0.0700
     21 C21        -1.4502   -0.0785   46.4326 C.3     1  ZINC000446721380   -0.1200
     22 H22        -1.7444   -0.9418   45.8357 H       1  ZINC000446721380    0.1000
     23 C23        -2.6769    0.5170   47.1656 C.3     1  ZINC000446721380   -0.1500
     24 C24        -2.5485   -0.1115   48.5766 C.3     1  ZINC000446721380    0.0500
     25 O25        -1.1237   -0.1288   48.8092 O.3     1  ZINC000446721380   -0.3800
     26 C26        -0.4991   -0.5061   47.5672 C.3     1  ZINC000446721380    0.0500
     27 C27         0.9102    3.1121   44.6875 C.ar    1  ZINC000446721380   -0.2100
     28 H28         1.9393    5.0412   42.6224 H       1  ZINC000446721380    0.0800
     29 H29         3.4758    4.1648   42.8207 H       1  ZINC000446721380    0.0700
     30 H30         2.0127    3.2910   42.3069 H       1  ZINC000446721380    0.0700
     31 H31         3.7645    4.8530   45.1313 H       1  ZINC000446721380    0.1300
     32 H32         3.2098    4.4079   47.4877 H       1  ZINC000446721380    0.1300
     33 H33         0.8683    1.9935   48.5941 H       1  ZINC000446721380    0.0800
     34 H34         1.9350    3.3272   49.0959 H       1  ZINC000446721380    0.0800
     35 H35        -0.8201    3.9526   48.2293 H       1  ZINC000446721380    0.4000
     36 H36        -1.9510    5.2588   49.7991 H       1  ZINC000446721380    0.4100
     37 H37         0.6581    5.0308   52.2844 H       1  ZINC000446721380    0.1500
     38 H38         0.5584    6.0921   54.5030 H       1  ZINC000446721380    0.1300
     39 H39        -1.4153    7.4107   55.1515 H       1  ZINC000446721380    0.1300
     40 H40        -3.2961    7.6714   53.5855 H       1  ZINC000446721380    0.1400
     41 H41        -1.4556    1.2369   44.7265 H       1  ZINC000446721380    0.0700
     42 H42         0.1470    0.5881   45.1497 H       1  ZINC000446721380    0.0700
     43 H43        -2.6100    1.6038   47.2163 H       1  ZINC000446721380    0.0800
     44 H44        -3.6051    0.2078   46.6851 H       1  ZINC000446721380    0.0900
     45 H45        -3.0513    0.5075   49.3197 H       1  ZINC000446721380    0.1000
     46 H46        -2.9509   -1.1245   48.5837 H       1  ZINC000446721380    0.0600
     47 H47        -0.3478   -1.5852   47.5411 H       1  ZINC000446721380    0.0600
     48 H48         0.4569    0.0069   47.4623 H       1  ZINC000446721380    0.0900
     49 H49         0.2664    2.7475   43.9008 H       1  ZINC000446721380    0.1300
@<TRIPOS>BOND
     1     1     2    1
     2     1    28    1
     3     1    29    1
     4     1    30    1
     5     2    27   ar
     6     2     3   ar
     7     3     4   ar
     8     3    31    1
     9     4     5   ar
    10     4    32    1
    11     5     6    1
    12     5    18   ar
    13     6     7    1
    14     6    33    1
    15     6    34    1
    16     7     8   am
    17     7    35    1
    18     8     9    2
    19     8    10   am
    20    10    11    1
    21    10    36    1
    22    11    16   ar
    23    11    12   ar
    24    12    13   ar
    25    12    37    1
    26    13    14   ar
    27    13    38    1
    28    14    15   ar
    29    14    39    1
    30    15    16   ar
    31    15    40    1
    32    16    17    1
    33    18    19    1
    34    18    27   ar
    35    19    20    1
    36    20    21    1
    37    20    41    1
    38    20    42    1
    39    21    22    1
    40    21    26    1
    41    21    23    1
    42    23    24    1
    43    23    43    1
    44    23    44    1
    45    24    25    1
    46    24    45    1
    47    24    46    1
    48    25    26    1
    49    26    47    1
    50    26    48    1
    51    27    49    1
@<TRIPOS>SUBSTRUCTURE
     1 ZINC000446721380        1 TEMP              0 ****  ****    0 ROOT


##########                                Name:    ZINC000883773972
##########                DOCK_Rotatable_Bonds:                   4
##########                         Heavy_Atoms:                  23
##########                    Molecular_Weight:             343.447
##########                DOCK_Rotatable_Bonds:                   4
##########                       Formal_Charge:                0.01
##########                     HBond_Acceptors:                   8
##########                        HBond_Donors:                   1
##########                         Heavy_Atoms:                  23
##########                          Grid_Score:          -21.975311
##########                     Grid_vdw_energy:          -21.770502
##########                      Grid_es_energy:           -0.204810
##########           Internal_energy_repulsive:            5.070299

@<TRIPOS>MOLECULE
ZINC000883773972
 48 50 1 0 0
SMALL
USER_CHARGES


@<TRIPOS>ATOM
      1 C1         -1.1748    6.4497   54.0529 C.3     1  ZINC000883773972   -0.1700
      2 C2         -1.9220    5.9011   52.8647 C.2     1  ZINC000883773972    0.5300
      3 O3         -1.5092    6.1037   51.7424 O.2     1  ZINC000883773972   -0.5400
      4 N4         -3.0489    5.1852   53.0491 N.am    1  ZINC000883773972   -0.6200
      5 C5         -3.6813    4.8562   54.3372 C.3     1  ZINC000883773972    0.1100
      6 C6         -5.1937    4.7777   54.0702 C.3     1  ZINC000883773972   -0.1100
      7 H7         -5.7149    5.6674   54.4234 H       1  ZINC000883773972    0.1000
      8 C8         -5.7570    3.4947   54.7039 C.3     1  ZINC000883773972    0.1300
      9 N9         -6.5779    2.8461   53.6683 N.am    1  ZINC000883773972   -0.6400
     10 C10        -7.6777    2.0926   53.8669 C.2     1  ZINC000883773972    0.7300
     11 O11        -8.0809    1.8915   54.9961 O.2     1  ZINC000883773972   -0.5800
     12 N12        -8.3303    1.5622   52.8137 N.am    1  ZINC000883773972   -0.7400
     13 C13        -9.5246    0.7418   53.0296 C.3     1  ZINC000883773972    0.1800
     14 H14        -9.3990    0.1520   53.9377 H       1  ZINC000883773972    0.1100
     15 C15       -10.7422    1.6493   53.1795 C.3     1  ZINC000883773972   -0.1500
     16 C16       -11.9535    0.8506   53.6519 C.3     1  ZINC000883773972   -0.1000
     17 C17       -12.4364   -0.0772   52.5346 C.3     1  ZINC000883773972   -0.5600
     18 H18       -12.6518    0.5091   51.6414 H       1  ZINC000883773972    0.1400
     19 C19       -13.7032   -0.8065   52.9864 C.3     1  ZINC000883773972   -0.1400
     20 S20       -11.1332   -1.2883   52.1671 S.o2    1  ZINC000883773972    2.4200
     21 O21       -10.8654   -2.0394   53.3434 O.2     1  ZINC000883773972   -0.9200
     22 O22       -11.4722   -1.9714   50.9681 O.2     1  ZINC000883773972   -0.9300
     23 C23        -9.7184   -0.1972   51.8369 C.3     1  ZINC000883773972   -0.6300
     24 C24        -5.9629    3.1810   52.3733 C.3     1  ZINC000883773972    0.1100
     25 C25        -5.3295    4.5968   52.5383 C.3     1  ZINC000883773972   -0.1100
     26 H26        -5.9376    5.3705   52.0695 H       1  ZINC000883773972    0.1000
     27 C27        -3.8914    4.5851   52.0017 C.3     1  ZINC000883773972    0.1100
     28 H28        -0.2966    6.9962   53.7092 H       1  ZINC000883773972    0.0900
     29 H29        -1.8253    7.1222   54.6122 H       1  ZINC000883773972    0.0900
     30 H30        -0.8622    5.6276   54.6967 H       1  ZINC000883773972    0.0900
     31 H31        -3.3149    3.8956   54.6993 H       1  ZINC000883773972    0.0800
     32 H32        -3.4705    5.6372   55.0679 H       1  ZINC000883773972    0.0900
     33 H33        -4.9417    2.8357   55.0023 H       1  ZINC000883773972    0.0700
     34 H34        -6.3729    3.7435   55.5681 H       1  ZINC000883773972    0.0900
     35 H35        -8.0092    1.7237   51.9127 H       1  ZINC000883773972    0.4000
     36 H36       -10.5208    2.4301   53.9071 H       1  ZINC000883773972    0.0900
     37 H37       -10.9680    2.1091   52.2174 H       1  ZINC000883773972    0.0800
     38 H38       -11.6774    0.2555   54.5223 H       1  ZINC000883773972    0.0900
     39 H39       -12.7555    1.5368   53.9242 H       1  ZINC000883773972    0.0900
     40 H40       -14.4808   -0.0772   53.2136 H       1  ZINC000883773972    0.0800
     41 H41       -14.0459   -1.4668   52.1899 H       1  ZINC000883773972    0.0700
     42 H42       -13.4853   -1.3949   53.8777 H       1  ZINC000883773972    0.0800
     43 H43        -9.9108    0.3874   50.9372 H       1  ZINC000883773972    0.1400
     44 H44        -8.8193   -0.7976   51.6980 H       1  ZINC000883773972    0.1400
     45 H45        -5.1962    2.4481   52.1225 H       1  ZINC000883773972    0.0800
     46 H46        -6.7242    3.2086   51.5937 H       1  ZINC000883773972    0.0800
     47 H47        -3.8331    5.1565   51.0753 H       1  ZINC000883773972    0.0900
     48 H48        -3.5643    3.5595   51.8305 H       1  ZINC000883773972    0.0700
@<TRIPOS>BOND
     1     1     2    1
     2     1    28    1
     3     1    29    1
     4     1    30    1
     5     2     3    2
     6     2     4   am
     7     4    27    1
     8     4     5    1
     9     5     6    1
    10     5    31    1
    11     5    32    1
    12     6     7    1
    13     6    25    1
    14     6     8    1
    15     8     9    1
    16     8    33    1
    17     8    34    1
    18     9    10   am
    19     9    24    1
    20    10    11    2
    21    10    12   am
    22    12    13    1
    23    12    35    1
    24    13    14    1
    25    13    23    1
    26    13    15    1
    27    15    16    1
    28    15    36    1
    29    15    37    1
    30    16    17    1
    31    16    38    1
    32    16    39    1
    33    17    18    1
    34    17    19    1
    35    17    20    1
    36    19    40    1
    37    19    41    1
    38    19    42    1
    39    20    21    2
    40    20    22    2
    41    20    23    1
    42    23    43    1
    43    23    44    1
    44    24    25    1
    45    24    45    1
    46    24    46    1
    47    25    26    1
    48    25    27    1
    49    27    47    1
    50    27    48    1
@<TRIPOS>SUBSTRUCTURE
     1 ZINC000883773972        1 TEMP              0 ****  ****    0 ROOT


##########                                Name:    ZINC001023407238
##########                DOCK_Rotatable_Bonds:                   7
##########                         Heavy_Atoms:                  25
##########                    Molecular_Weight:             349.387
##########                DOCK_Rotatable_Bonds:                   7
##########                       Formal_Charge:          -0.0300008
##########                     HBond_Acceptors:                   8
##########                        HBond_Donors:                   2
##########                         Heavy_Atoms:                  25
##########                          Grid_Score:          -21.564098
##########                     Grid_vdw_energy:          -21.013817
##########                      Grid_es_energy:           -0.550281
##########           Internal_energy_repulsive:           12.547829

@<TRIPOS>MOLECULE
ZINC001023407238
 48 50 1 0 0
SMALL
USER_CHARGES


@<TRIPOS>ATOM
      1 C1          0.4295    7.2617   45.3597 C.3     1  ZINC001023407238   -0.0900
      2 C2          0.4563    7.3592   46.8634 C.2     1  ZINC001023407238   -0.1100
      3 C3          1.3988    6.8055   47.7035 C.2     1  ZINC001023407238   -0.0500
      4 C4          2.5628    6.0110   47.2969 C.2     1  ZINC001023407238    0.6100
      5 O5          3.6050    6.5657   47.0017 O.2     1  ZINC001023407238   -0.5100
      6 N6          2.4781    4.6667   47.2501 N.am    1  ZINC001023407238   -0.6100
      7 C7          3.5624    3.7528   46.8619 C.3     1  ZINC001023407238    0.0800
      8 C8          3.0153    2.3149   46.9839 C.3     1  ZINC001023407238    0.0900
      9 H9          2.6621    1.9535   46.0181 H       1  ZINC001023407238    0.0800
     10 O10         4.0107    1.4387   47.5163 O.3     1  ZINC001023407238   -0.5500
     11 C11         1.8330    2.4758   47.9757 C.3     1  ZINC001023407238    0.1400
     12 H12         2.1852    2.4730   49.0072 H       1  ZINC001023407238    0.1200
     13 N13         0.8252    1.4336   47.7649 N.am    1  ZINC001023407238   -0.7200
     14 C14        -0.2665    1.3826   48.5536 C.2     1  ZINC001023407238    0.5200
     15 O15        -0.4139    2.1987   49.4386 O.2     1  ZINC001023407238   -0.5300
     16 C16        -1.3041    0.3116   48.3357 C.3     1  ZINC001023407238   -0.1300
     17 C17        -1.1501   -0.2688   46.9285 C.3     1  ZINC001023407238   -0.1100
     18 H18        -0.2303   -0.8483   46.8479 H       1  ZINC001023407238    0.1100
     19 C19        -2.3775   -1.1286   46.5500 C.3     1  ZINC001023407238    0.0600
     20 O20        -2.5544   -0.9009   45.1205 O.3     1  ZINC001023407238   -0.3500
     21 C21        -2.1406    0.3334   44.8003 C.2     1  ZINC001023407238    0.4800
     22 O22        -2.4726    0.9425   43.8109 O.2     1  ZINC001023407238   -0.4600
     23 C23        -1.1903    0.8504   45.8642 C.3     1  ZINC001023407238   -0.1800
     24 C24         1.2847    3.8688   47.5858 C.3     1  ZINC001023407238    0.1000
     25 N25         1.0487    7.1344   48.9936 N.pl3   1  ZINC001023407238   -0.4200
     26 C26         1.7802    6.7474   50.2024 C.3     1  ZINC001023407238    0.0700
     27 C27        -0.0853    7.8758   48.9590 C.2     1  ZINC001023407238    0.0100
     28 C28        -0.4666    8.0335   47.6689 C.2     1  ZINC001023407238   -0.2000
     29 H29         0.9898    8.0930   44.9317 H       1  ZINC001023407238    0.0600
     30 H30         0.8821    6.3201   45.0486 H       1  ZINC001023407238    0.0600
     31 H31        -0.6025    7.3015   45.0114 H       1  ZINC001023407238    0.0700
     32 H32         3.8621    3.9493   45.8326 H       1  ZINC001023407238    0.0800
     33 H33         4.4140    3.8832   47.5296 H       1  ZINC001023407238    0.0800
     34 H34         3.6683    0.5792   47.7975 H       1  ZINC001023407238    0.3900
     35 H35         0.9437    0.7803   47.0579 H       1  ZINC001023407238    0.4100
     36 H36        -1.1689   -0.4804   49.0722 H       1  ZINC001023407238    0.1000
     37 H37        -2.2994    0.7425   48.4441 H       1  ZINC001023407238    0.1100
     38 H38        -2.1791   -2.1823   46.7459 H       1  ZINC001023407238    0.1200
     39 H39        -3.2584   -0.7975   47.1001 H       1  ZINC001023407238    0.0800
     40 H40        -1.5747    1.7723   46.3005 H       1  ZINC001023407238    0.1100
     41 H41        -0.1995    1.0144   45.4406 H       1  ZINC001023407238    0.1200
     42 H42         0.7499    4.3144   48.4247 H       1  ZINC001023407238    0.0900
     43 H43         0.6311    3.7898   46.7171 H       1  ZINC001023407238    0.0800
     44 H44         2.4641    7.5478   50.4851 H       1  ZINC001023407238    0.0800
     45 H45         1.0737    6.5700   51.0134 H       1  ZINC001023407238    0.0900
     46 H46         2.3468    5.8368   50.0084 H       1  ZINC001023407238    0.0800
     47 H47        -0.5990    8.2783   49.8195 H       1  ZINC001023407238    0.1700
     48 H48        -1.3335    8.5774   47.3239 H       1  ZINC001023407238    0.1400
@<TRIPOS>BOND
     1     1     2    1
     2     1    29    1
     3     1    30    1
     4     1    31    1
     5     2    28    1
     6     2     3    2
     7     3     4    1
     8     3    25    1
     9     4     5    2
    10     4     6   am
    11     6    24    1
    12     6     7    1
    13     7     8    1
    14     7    32    1
    15     7    33    1
    16     8     9    1
    17     8    10    1
    18     8    11    1
    19    10    34    1
    20    11    12    1
    21    11    13    1
    22    11    24    1
    23    13    14   am
    24    13    35    1
    25    14    15    2
    26    14    16    1
    27    16    17    1
    28    16    36    1
    29    16    37    1
    30    17    18    1
    31    17    23    1
    32    17    19    1
    33    19    20    1
    34    19    38    1
    35    19    39    1
    36    20    21    1
    37    21    22    2
    38    21    23    1
    39    23    40    1
    40    23    41    1
    41    24    42    1
    42    24    43    1
    43    25    26    1
    44    25    27    1
    45    26    44    1
    46    26    45    1
    47    26    46    1
    48    27    28    2
    49    27    47    1
    50    28    48    1
@<TRIPOS>SUBSTRUCTURE
     1 ZINC001023407238        1 TEMP              0 ****  ****    0 ROOT


##########                                Name:    ZINC000431691749
##########                DOCK_Rotatable_Bonds:                   4
##########                         Heavy_Atoms:                  24
##########                    Molecular_Weight:             328.454
##########                DOCK_Rotatable_Bonds:                   4
##########                       Formal_Charge:         -0.00999957
##########                     HBond_Acceptors:                   4
##########                        HBond_Donors:                   0
##########                         Heavy_Atoms:                  24
##########                          Grid_Score:          -20.707329
##########                     Grid_vdw_energy:          -19.563108
##########                      Grid_es_energy:           -1.144221
##########           Internal_energy_repulsive:          110.566101

@<TRIPOS>MOLECULE
ZINC000431691749
 52 54 1 0 0
SMALL
USER_CHARGES


@<TRIPOS>ATOM
      1 C1        -13.8272   -3.7216   58.7219 C.3     1  ZINC000431691749   -0.1200
      2 C2        -13.3676   -2.5756   59.5858 C.ar    1  ZINC000431691749   -0.0800
      3 C3        -14.2757   -1.9012   60.3799 C.ar    1  ZINC000431691749   -0.1200
      4 C4        -13.8541   -0.8497   61.1725 C.ar    1  ZINC000431691749   -0.1100
      5 C5        -12.5241   -0.4734   61.1712 C.ar    1  ZINC000431691749   -0.1100
      6 C6        -11.6154   -1.1486   60.3776 C.ar    1  ZINC000431691749   -0.0800
      7 C7        -10.1654   -0.7380   60.3758 C.3     1  ZINC000431691749    0.2000
      8 H8         -9.5571   -1.5548   59.9874 H       1  ZINC000431691749    0.1100
      9 N9         -9.9938    0.4445   59.5283 N.am    1  ZINC000431691749   -0.5700
     10 C10        -8.8305    0.7960   58.9456 C.2     1  ZINC000431691749    0.5200
     11 O11        -7.7690    0.2153   59.0210 O.2     1  ZINC000431691749   -0.4400
     12 C12        -9.1258    2.0678   58.1755 C.3     1  ZINC000431691749    0.0900
     13 H13        -8.5225    2.8934   58.5529 H       1  ZINC000431691749    0.1300
     14 C14        -8.8773    1.8614   56.6799 C.3     1  ZINC000431691749   -0.1500
     15 N15       -10.5553    2.3078   58.4384 N.am    1  ZINC000431691749   -0.6000
     16 C16       -11.3646    3.4178   57.9293 C.3     1  ZINC000431691749    0.1500
     17 C17       -12.0866    4.2101   59.0320 C.3     1  ZINC000431691749   -0.1600
     18 C18       -10.8299    5.0927   59.1115 C.3     1  ZINC000431691749   -0.1400
     19 C19       -10.5538    4.6947   57.6521 C.3     1  ZINC000431691749   -0.1500
     20 C20       -10.9739    1.3059   59.2324 C.2     1  ZINC000431691749    0.7000
     21 O21       -12.1134    1.1990   59.6414 O.2     1  ZINC000431691749   -0.5300
     22 C22        -9.7265   -0.4099   61.8043 C.3     1  ZINC000431691749   -0.0700
     23 C23        -8.2728   -0.8433   62.0035 C.3     1  ZINC000431691749   -0.1400
     24 C24        -9.8465    1.0969   62.0412 C.3     1  ZINC000431691749   -0.1400
     25 C25       -10.6215   -1.1550   62.7967 C.3     1  ZINC000431691749   -0.1600
     26 C26       -12.0363   -2.2024   59.5885 C.ar    1  ZINC000431691749   -0.1100
     27 H27       -13.7561   -4.6522   59.2849 H       1  ZINC000431691749    0.0700
     28 H28       -14.8618   -3.5572   58.4206 H       1  ZINC000431691749    0.0700
     29 H29       -13.1961   -3.7842   57.8354 H       1  ZINC000431691749    0.0700
     30 H30       -15.3150   -2.1952   60.3809 H       1  ZINC000431691749    0.1200
     31 H31       -14.5639   -0.3223   61.7924 H       1  ZINC000431691749    0.1200
     32 H32       -12.1948    0.3483   61.7898 H       1  ZINC000431691749    0.1100
     33 H33        -9.5063    1.0491   56.3158 H       1  ZINC000431691749    0.0700
     34 H34        -9.1196    2.7778   56.1416 H       1  ZINC000431691749    0.0800
     35 H35        -7.8292    1.6106   56.5170 H       1  ZINC000431691749    0.0800
     36 H36       -12.0136    3.1248   57.1040 H       1  ZINC000431691749    0.1000
     37 H37       -12.9714    4.7407   58.6803 H       1  ZINC000431691749    0.0900
     38 H38       -12.2711    3.6305   59.9365 H       1  ZINC000431691749    0.0700
     39 H39       -11.0483    6.1526   59.2413 H       1  ZINC000431691749    0.0700
     40 H40       -10.0816    4.7247   59.8135 H       1  ZINC000431691749    0.0800
     41 H41        -9.5008    4.5065   57.4424 H       1  ZINC000431691749    0.1000
     42 H42       -11.0195    5.3580   56.9230 H       1  ZINC000431691749    0.0900
     43 H43        -7.6353   -0.3125   61.2965 H       1  ZINC000431691749    0.0600
     44 H44        -7.9602   -0.6095   63.0211 H       1  ZINC000431691749    0.0600
     45 H45        -8.1874   -1.9168   61.8347 H       1  ZINC000431691749    0.0600
     46 H46       -10.8821    1.4058   61.8992 H       1  ZINC000431691749    0.0500
     47 H47        -9.5338    1.3308   63.0588 H       1  ZINC000431691749    0.0600
     48 H48        -9.2089    1.6277   61.3342 H       1  ZINC000431691749    0.0500
     49 H49       -11.0392   -2.0395   62.3160 H       1  ZINC000431691749    0.0700
     50 H50       -10.0318   -1.4561   63.6624 H       1  ZINC000431691749    0.0400
     51 H51       -11.4311   -0.4999   63.1185 H       1  ZINC000431691749    0.1000
     52 H52       -11.3264   -2.7300   58.9686 H       1  ZINC000431691749    0.1300
@<TRIPOS>BOND
     1     1     2    1
     2     1    27    1
     3     1    28    1
     4     1    29    1
     5     2    26   ar
     6     2     3   ar
     7     3     4   ar
     8     3    30    1
     9     4     5   ar
    10     4    31    1
    11     5     6   ar
    12     5    32    1
    13     6     7    1
    14     6    26   ar
    15     7     8    1
    16     7     9    1
    17     7    22    1
    18     9    20   am
    19     9    10   am
    20    10    11    2
    21    10    12    1
    22    12    13    1
    23    12    14    1
    24    12    15    1
    25    14    33    1
    26    14    34    1
    27    14    35    1
    28    15    16    1
    29    15    20   am
    30    16    19    1
    31    16    17    1
    32    16    36    1
    33    17    18    1
    34    17    37    1
    35    17    38    1
    36    18    19    1
    37    18    39    1
    38    18    40    1
    39    19    41    1
    40    19    42    1
    41    20    21    2
    42    22    23    1
    43    22    24    1
    44    22    25    1
    45    23    43    1
    46    23    44    1
    47    23    45    1
    48    24    46    1
    49    24    47    1
    50    24    48    1
    51    25    49    1
    52    25    50    1
    53    25    51    1
    54    26    52    1
@<TRIPOS>SUBSTRUCTURE
     1 ZINC000431691749        1 TEMP              0 ****  ****    0 ROOT

