
##########                                Name:     oleObject80.pdb
##########                DOCK_Rotatable_Bonds:                  14
##########                         Heavy_Atoms:                  51
##########                    Molecular_Weight:             703.283
##########                DOCK_Rotatable_Bonds:                  14
##########                       Formal_Charge:         0.000299793
##########                     HBond_Acceptors:                  10
##########                        HBond_Donors:                   3
##########                         Heavy_Atoms:                  51
##########                          Grid_Score:          -43.131348
##########                     Grid_vdw_energy:          -41.828911
##########                      Grid_es_energy:           -1.302435
##########           Internal_energy_repulsive:           33.214233

@<TRIPOS>MOLECULE
oleObject80.pdb
 94 99 1 0 0
SMALL
NO_CHARGES


@<TRIPOS>ATOM
      1 C         -18.9143    1.5173   59.8636 C.ar    1  UNL        -0.0620
      2 C         -18.0855    2.4044   60.5648 C.ar    1  UNL        -0.0590
      3 C         -16.7741    2.0350   60.9219 C.ar    1  UNL        -0.0456
      4 C         -16.2847    0.7512   60.5703 C.ar    1  UNL        -0.0185
      5 C         -17.1318   -0.1300   59.8620 C.ar    1  UNL        -0.0565
      6 C         -18.4357    0.2492   59.5109 C.ar    1  UNL        -0.0619
      7 C         -14.8589    0.3169   60.9547 C.3     1  UNL         0.0931
      8 C         -14.5343    0.5014   62.4479 C.ar    1  UNL         0.0683
      9 C         -13.3472    1.1488   62.8749 C.ar    1  UNL        -0.0272
     10 C         -13.1128    1.2764   64.2569 C.ar    1  UNL        -0.0559
     11 C         -14.0563    0.7674   65.1607 C.ar    1  UNL        -0.0435
     12 C         -15.2079    0.1494   64.6522 C.ar    1  UNL         0.0272
     13 N         -15.4410    0.0225   63.3327 N.ar    1  UNL        -0.2587
     14 C         -12.3256    1.7085   61.8910 C.3     1  UNL        -0.0379
     15 N         -14.4664   -1.0200   60.4227 N.am    1  UNL        -0.2918
     16 C         -13.5449   -1.1249   59.3747 C.2     1  UNL         0.2180
     17 O         -12.8534   -0.1713   59.0559 O.2     1  UNL        -0.2772
     18 C         -13.1934   -2.5515   58.8830 C.3     1  UNL         0.0385
     19 C         -11.6725   -2.7262   58.6488 C.3     1  UNL        -0.0289
     20 C         -11.1972   -1.9868   57.3814 C.3     1  UNL        -0.0010
     21 N         -11.9325   -2.4368   56.1801 N.4     1  UNL        -0.3010
     22 C         -13.4023   -2.2910   56.3097 C.3     1  UNL        -0.0010
     23 C         -13.9583   -2.9557   57.5946 C.3     1  UNL        -0.0289
     24 C         -11.3709   -1.8409   54.9475 C.3     1  UNL         0.0222
     25 C         -10.8397   -0.4061   55.1446 C.3     1  UNL         0.0661
     26 O         -10.3982    0.0780   53.8638 O.3     1  UNL        -0.3432
     27 C          -9.3047    0.9058   53.6958 C.ar    1  UNL         0.0937
     28 C          -9.1777    2.1286   54.3855 C.ar    1  UNL        -0.0284
     29 C          -8.0494    2.9405   54.1834 C.ar    1  UNL        -0.0381
     30 C          -7.0263    2.5430   53.3055 C.ar    1  UNL         0.0319
     31 C          -7.1653    1.3316   52.6008 C.ar    1  UNL        -0.0194
     32 C          -8.2921    0.5164   52.7979 C.ar    1  UNL         0.0727
     33 CL         -8.4164   -0.9846   51.8994 Cl      1  UNL        -0.0814
     34 N          -5.9333    3.3880   53.1223 N.pl3   1  UNL        -0.3136
     35 C          -4.5823    3.2364   53.4329 C.ar    1  UNL         0.0489
     36 C          -3.6096    3.8220   52.6035 C.ar    1  UNL         0.0488
     37 N          -2.2859    3.7385   52.8438 N.ar    1  UNL        -0.2543
     38 C          -1.8371    3.0798   53.9349 C.ar    1  UNL         0.0703
     39 C          -2.7561    2.4762   54.8322 C.ar    1  UNL        -0.0339
     40 C          -4.1354    2.5595   54.5825 C.ar    1  UNL        -0.0371
     41 C          -0.3462    3.0343   54.1391 C.ar    1  UNL         0.0009
     42 C           0.5582    3.1798   53.0549 C.ar    1  UNL        -0.0402
     43 C           1.9569    3.1385   53.2329 C.ar    1  UNL         0.0375
     44 C           2.4698    2.9451   54.5324 C.ar    1  UNL        -0.0496
     45 C           1.6000    2.7933   55.6212 C.ar    1  UNL        -0.0608
     46 C           0.2119    2.8352   55.4279 C.ar    1  UNL        -0.0528
     47 C           2.8616    3.2986   52.0350 C.2     1  UNL         0.2403
     48 O           4.0750    3.3351   52.1329 O.2     1  UNL        -0.2722
     49 N           2.2649    3.4039   50.7964 N.am    1  UNL        -0.3251
     50 C         -15.0258   -2.2101   61.1025 C.3     1  UNL         0.0037
     51 C         -15.9165    3.0435   61.6811 C.3     1  UNL        -0.0394
     52 H         -19.9237    1.8133   59.5927 H       1  UNL         0.0623
     53 H         -18.4670    3.3861   60.8313 H       1  UNL         0.0626
     54 H         -16.7839   -1.1155   59.5692 H       1  UNL         0.0627
     55 H         -19.0734   -0.4401   58.9647 H       1  UNL         0.0623
     56 H         -14.2110    1.0363   60.4477 H       1  UNL         0.0626
     57 H         -12.2140    1.7625   64.6258 H       1  UNL         0.0627
     58 H         -13.9003    0.8521   66.2321 H       1  UNL         0.0639
     59 H         -15.9665   -0.2566   65.3201 H       1  UNL         0.0840
     60 H         -11.8320    0.9013   61.3355 H       1  UNL         0.0280
     61 H         -11.5426    2.2812   62.4033 H       1  UNL         0.0280
     62 H         -12.7992    2.3815   61.1657 H       1  UNL         0.0280
     63 H         -13.5059   -3.2562   59.6623 H       1  UNL         0.0402
     64 H         -11.4469   -3.7947   58.5385 H       1  UNL         0.0288
     65 H         -11.1007   -2.3767   59.5151 H       1  UNL         0.0288
     66 H         -10.1229   -2.1719   57.2529 H       1  UNL         0.0431
     67 H         -11.3338   -0.9057   57.5212 H       1  UNL         0.0431
     68 H         -13.9083   -2.7492   55.4518 H       1  UNL         0.0431
     69 H         -13.6632   -1.2254   56.3085 H       1  UNL         0.0431
     70 H         -13.8861   -4.0445   57.4743 H       1  UNL         0.0288
     71 H         -15.0260   -2.7255   57.7017 H       1  UNL         0.0288
     72 H         -12.1522   -1.8039   54.1771 H       1  UNL         0.0455
     73 H         -10.5594   -2.4730   54.5635 H       1  UNL         0.0455
     74 H         -10.0030   -0.4065   55.8538 H       1  UNL         0.0586
     75 H         -11.6440    0.2304   55.5350 H       1  UNL         0.0586
     76 H          -9.9445    2.4616   55.0772 H       1  UNL         0.0652
     77 H          -7.9657    3.8810   54.7210 H       1  UNL         0.0644
     78 H          -6.4126    1.0248   51.8814 H       1  UNL         0.0659
     79 H          -6.1624    4.2755   52.6932 H       1  UNL         0.1528
     80 H          -3.8995    4.3707   51.7084 H       1  UNL         0.0861
     81 H          -2.4139    1.9391   55.7100 H       1  UNL         0.0646
     82 H          -4.8371    2.1196   55.2841 H       1  UNL         0.0644
     83 H           0.1705    3.3100   52.0505 H       1  UNL         0.0638
     84 H           3.5396    2.9080   54.7126 H       1  UNL         0.0631
     85 H           2.0024    2.6438   56.6193 H       1  UNL         0.0623
     86 H          -0.4347    2.7209   56.2932 H       1  UNL         0.0630
     87 H           2.8339    3.5124   49.9677 H       1  UNL         0.1458
     88 H           1.2554    3.3693   50.7334 H       1  UNL         0.1458
     89 H         -15.7886   -1.9378   61.8394 H       1  UNL         0.0433
     90 H         -14.2320   -2.7521   61.6295 H       1  UNL         0.0433
     91 H         -15.4830   -2.8751   60.3593 H       1  UNL         0.0433
     92 H         -16.4433    3.9944   61.8293 H       1  UNL         0.0280
     93 H         -14.9917    3.2686   61.1363 H       1  UNL         0.0280
     94 H         -15.6442    2.6655   62.6742 H       1  UNL         0.0280
@<TRIPOS>BOND
     1     1     2   ar
     2     1     6   ar
     3     1    52    1
     4     2     3   ar
     5     2    53    1
     6     3     4   ar
     7     3    51    1
     8     4     5   ar
     9     4     7    1
    10     5     6   ar
    11     5    54    1
    12     6    55    1
    13     7     8    1
    14     7    15    1
    15     7    56    1
    16     8     9   ar
    17     8    13   ar
    18     9    10   ar
    19     9    14    1
    20    10    11   ar
    21    10    57    1
    22    11    12   ar
    23    11    58    1
    24    12    13   ar
    25    12    59    1
    26    14    60    1
    27    14    61    1
    28    14    62    1
    29    15    16   am
    30    15    50    1
    31    16    17    2
    32    16    18    1
    33    18    19    1
    34    18    23    1
    35    18    63    1
    36    19    20    1
    37    19    64    1
    38    19    65    1
    39    20    21    1
    40    20    66    1
    41    20    67    1
    42    21    22    1
    43    21    24    1
    44    22    23    1
    45    22    68    1
    46    22    69    1
    47    23    70    1
    48    23    71    1
    49    24    25    1
    50    24    72    1
    51    24    73    1
    52    25    26    1
    53    25    74    1
    54    25    75    1
    55    26    27    1
    56    27    28   ar
    57    27    32   ar
    58    28    29   ar
    59    28    76    1
    60    29    30   ar
    61    29    77    1
    62    30    31   ar
    63    30    34    1
    64    31    32   ar
    65    31    78    1
    66    32    33    1
    67    34    35    1
    68    34    79    1
    69    35    36   ar
    70    35    40   ar
    71    36    37   ar
    72    36    80    1
    73    37    38   ar
    74    38    39   ar
    75    38    41    1
    76    39    40   ar
    77    39    81    1
    78    40    82    1
    79    41    42   ar
    80    41    46   ar
    81    42    43   ar
    82    42    83    1
    83    43    44   ar
    84    43    47    1
    85    44    45   ar
    86    44    84    1
    87    45    46   ar
    88    45    85    1
    89    46    86    1
    90    47    48    2
    91    47    49   am
    92    49    87    1
    93    49    88    1
    94    50    89    1
    95    50    90    1
    96    50    91    1
    97    51    92    1
    98    51    93    1
    99    51    94    1
@<TRIPOS>SUBSTRUCTURE
     1 UNL         1 TEMP              0 ****  ****    0 ROOT


##########                                Name:    ZINC001591898574
##########                DOCK_Rotatable_Bonds:                  10
##########                         Heavy_Atoms:                  26
##########                    Molecular_Weight:             383.434
##########                DOCK_Rotatable_Bonds:                  10
##########                       Formal_Charge:         5.96046e-08
##########                     HBond_Acceptors:                  13
##########                        HBond_Donors:                   3
##########                         Heavy_Atoms:                  26
##########                          Grid_Score:          -41.815075
##########                     Grid_vdw_energy:          -39.351357
##########                      Grid_es_energy:           -2.463718
##########           Internal_energy_repulsive:            9.775207

@<TRIPOS>MOLECULE
ZINC001591898574
 47 48 1 0 0
SMALL
USER_CHARGES


@<TRIPOS>ATOM
      1 C1         -1.0549    3.5592   45.8783 C.3     1  ZINC001591898574   -0.1100
      2 C2         -1.2184    2.6512   47.0699 C.ar    1  ZINC001591898574    0.2300
      3 C3         -0.5054    1.4682   47.1506 C.ar    1  ZINC001591898574   -0.2400
      4 C4         -0.6873    0.6568   48.2732 C.ar    1  ZINC001591898574    0.3000
      5 C5          0.0546   -0.6215   48.4069 C.2     1  ZINC001591898574    0.2100
      6 N6         -0.4671   -1.8218   48.5657 N.2     1  ZINC001591898574   -0.2500
      7 N7          0.5032   -2.6667   48.6401 N.pl3   1  ZINC001591898574   -0.2200
      8 N8          1.6227   -2.0402   48.5336 N.2     1  ZINC001591898574   -0.0400
      9 N9          1.3855   -0.7812   48.3839 N.2     1  ZINC001591898574   -0.2500
     10 N10        -1.5355    1.0478   49.2209 N.ar    1  ZINC001591898574   -0.5500
     11 C11        -2.1981    2.1879   49.1042 C.ar    1  ZINC001591898574    0.5800
     12 N12        -3.0730    2.5652   50.1082 N.pl3   1  ZINC001591898574   -0.7000
     13 C13        -2.9966    3.9126   50.6783 C.3     1  ZINC001591898574    0.1400
     14 C14        -2.8182    3.8153   52.1948 C.3     1  ZINC001591898574   -0.1500
     15 C15        -4.1422    3.3982   52.8382 C.3     1  ZINC001591898574    0.1200
     16 N16        -3.9048    2.9955   54.2266 N.am    1  ZINC001591898574   -0.7300
     17 C17        -4.9454    2.8242   55.0659 C.2     1  ZINC001591898574    0.4900
     18 O18        -6.0784    3.0020   54.6713 O.2     1  ZINC001591898574   -0.5300
     19 C19        -4.7011    2.4117   56.4946 C.3     1  ZINC001591898574    0.1000
     20 N20        -5.8018    2.8889   57.3356 N.am    1  ZINC001591898574   -0.9800
     21 C21        -5.8367    4.2866   57.7730 C.3     1  ZINC001591898574    0.1000
     22 S22        -7.0065    1.8481   57.7917 S.o2    1  ZINC001591898574    2.6100
     23 C23        -8.1219    2.8615   58.8014 C.3     1  ZINC001591898574   -0.6600
     24 O24        -7.6339    1.4815   56.5706 O.2     1  ZINC001591898574   -0.9500
     25 O25        -6.3471    0.8799   58.5961 O.2     1  ZINC001591898574   -0.9600
     26 N26        -2.0415    2.9794   48.0531 N.ar    1  ZINC001591898574   -0.5600
     27 H27        -0.2489    4.2678   46.0693 H       1  ZINC001591898574    0.0900
     28 H28        -0.8138    2.9635   44.9978 H       1  ZINC001591898574    0.0900
     29 H29        -1.9836    4.1032   45.7058 H       1  ZINC001591898574    0.0900
     30 H30         0.1755    1.1786   46.3640 H       1  ZINC001591898574    0.1600
     31 H31         0.4053   -3.6245   48.7580 H       1  ZINC001591898574    0.4800
     32 H32        -3.7367    1.9376   50.4343 H       1  ZINC001591898574    0.4200
     33 H33        -2.1477    4.4424   50.2458 H       1  ZINC001591898574    0.0700
     34 H34        -3.9154    4.4545   50.4545 H       1  ZINC001591898574    0.0700
     35 H35        -2.0533    3.0734   52.4238 H       1  ZINC001591898574    0.0800
     36 H36        -2.5130    4.7852   52.5876 H       1  ZINC001591898574    0.0800
     37 H37        -4.8369    4.2378   52.8172 H       1  ZINC001591898574    0.0700
     38 H38        -4.5673    2.5609   52.2847 H       1  ZINC001591898574    0.0700
     39 H39        -2.9988    2.8521   54.5419 H       1  ZINC001591898574    0.4000
     40 H40        -4.6432    1.3249   56.5542 H       1  ZINC001591898574    0.1200
     41 H41        -3.7636    2.8452   56.8427 H       1  ZINC001591898574    0.1300
     42 H42        -6.3799    4.8832   57.0401 H       1  ZINC001591898574    0.0600
     43 H43        -6.3380    4.3527   58.7386 H       1  ZINC001591898574    0.0700
     44 H44        -4.8183    4.6638   57.8657 H       1  ZINC001591898574    0.0700
     45 H45        -8.5036    3.6883   58.2025 H       1  ZINC001591898574    0.1300
     46 H46        -8.9545    2.2496   59.1486 H       1  ZINC001591898574    0.1200
     47 H47        -7.5779    3.2555   59.6598 H       1  ZINC001591898574    0.1300
@<TRIPOS>BOND
     1     1     2    1
     2     1    27    1
     3     1    28    1
     4     1    29    1
     5     2    26   ar
     6     2     3   ar
     7     3     4   ar
     8     3    30    1
     9     4     5    1
    10     4    10   ar
    11     5     9    1
    12     5     6    2
    13     6     7    1
    14     7     8    1
    15     7    31    1
    16     8     9    2
    17    10    11   ar
    18    11    12    1
    19    11    26   ar
    20    12    13    1
    21    12    32    1
    22    13    14    1
    23    13    33    1
    24    13    34    1
    25    14    15    1
    26    14    35    1
    27    14    36    1
    28    15    16    1
    29    15    37    1
    30    15    38    1
    31    16    17   am
    32    16    39    1
    33    17    18    2
    34    17    19    1
    35    19    20    1
    36    19    40    1
    37    19    41    1
    38    20    21    1
    39    20    22   am
    40    21    42    1
    41    21    43    1
    42    21    44    1
    43    22    23    1
    44    22    24    2
    45    22    25    2
    46    23    45    1
    47    23    46    1
    48    23    47    1
@<TRIPOS>SUBSTRUCTURE
     1 ZINC001591898574        1 TEMP              0 ****  ****    0 ROOT


##########                                Name:    ZINC000465642058
##########                DOCK_Rotatable_Bonds:                  10
##########                         Heavy_Atoms:                  31
##########                    Molecular_Weight:             420.511
##########                DOCK_Rotatable_Bonds:                  10
##########                       Formal_Charge:          1.2666e-07
##########                     HBond_Acceptors:                   7
##########                        HBond_Donors:                   2
##########                         Heavy_Atoms:                  31
##########                          Grid_Score:          -40.817623
##########                     Grid_vdw_energy:          -38.731270
##########                      Grid_es_energy:           -2.086355
##########           Internal_energy_repulsive:           16.549450

@<TRIPOS>MOLECULE
ZINC000465642058
 59 62 1 0 0
SMALL
USER_CHARGES


@<TRIPOS>ATOM
      1 C1         -4.6102    3.7388   53.1419 C.3     1  ZINC000465642058   -0.1500
      2 C2         -3.2747    3.3679   53.7900 C.3     1  ZINC000465642058    0.0500
      3 O3         -2.2221    4.1088   53.1695 O.3     1  ZINC000465642058   -0.3000
      4 C4         -0.9592    3.6255   53.3131 C.ar    1  ZINC000465642058    0.1200
      5 C5         -0.5272    3.1584   54.5465 C.ar    1  ZINC000465642058   -0.1600
      6 C6          0.7526    2.6686   54.6861 C.ar    1  ZINC000465642058   -0.1300
      7 C7          1.6215    2.6286   53.6038 C.ar    1  ZINC000465642058    0.0700
      8 C8          1.1839    3.1031   52.3697 C.ar    1  ZINC000465642058   -0.0700
      9 C9         -0.0979    3.5913   52.2263 C.ar    1  ZINC000465642058   -0.1100
     10 C10        -0.5607    4.1015   50.8860 C.3     1  ZINC000465642058    0.1900
     11 N11        -1.0713    2.9842   50.0879 N.am    1  ZINC000465642058   -0.7300
     12 C12        -1.3209    3.1530   48.7743 C.2     1  ZINC000465642058    0.7100
     13 O13        -1.1237    4.2332   48.2519 O.2     1  ZINC000465642058   -0.5900
     14 N14        -1.7891    2.1247   48.0397 N.am    1  ZINC000465642058   -0.6200
     15 C15        -2.0250    0.8228   48.6687 C.3     1  ZINC000465642058    0.1900
     16 C16        -0.7839   -0.0240   48.5514 C.2     1  ZINC000465642058    0.0500
     17 N17        -0.7479   -1.2926   48.2332 N.2     1  ZINC000465642058   -0.2700
     18 N18         0.5906   -1.7059   48.2326 N.pl3   1  ZINC000465642058   -0.4700
     19 C19         1.3537   -0.6425   48.5610 C.2     1  ZINC000465642058    0.0600
     20 C20         0.5290    0.4121   48.7579 C.2     1  ZINC000465642058   -0.2600
     21 C21        -2.0621    2.3086   46.6121 C.3     1  ZINC000465642058    0.1700
     22 C22        -0.8765    1.8386   45.8094 C.ar    1  ZINC000465642058   -0.1100
     23 C23        -1.0658    1.0207   44.7112 C.ar    1  ZINC000465642058   -0.0900
     24 C24         0.0218    0.5896   43.9749 C.ar    1  ZINC000465642058   -0.1200
     25 C25         1.2986    0.9766   44.3364 C.ar    1  ZINC000465642058   -0.1200
     26 C26         1.4878    1.7953   45.4341 C.ar    1  ZINC000465642058   -0.1300
     27 C27         0.4000    2.2300   46.1678 C.ar    1  ZINC000465642058   -0.1100
     28 O28         2.8222    2.0893   53.9554 O.3     1  ZINC000465642058   -0.3000
     29 C29         2.9682    2.1507   55.3843 C.3     1  ZINC000465642058    0.0800
     30 H30         3.4518    3.0806   55.6835 H       1  ZINC000465642058    0.0900
     31 C31         3.7528    0.9433   55.9015 C.3     1  ZINC000465642058   -0.1500
     32 C32         1.5033    2.1108   55.8799 C.3     1  ZINC000465642058   -0.1100
     33 H33        -4.5765    3.5011   52.0787 H       1  ZINC000465642058    0.0700
     34 H34        -5.4131    3.1737   53.6153 H       1  ZINC000465642058    0.0800
     35 H35        -4.7923    4.8058   53.2701 H       1  ZINC000465642058    0.0700
     36 H36        -3.3085    3.6056   54.8533 H       1  ZINC000465642058    0.0600
     37 H37        -3.0926    2.3009   53.6619 H       1  ZINC000465642058    0.0600
     38 H38        -1.1937    3.1791   55.3961 H       1  ZINC000465642058    0.1300
     39 H39         1.8501    3.0846   51.5198 H       1  ZINC000465642058    0.1400
     40 H40        -1.3525    4.8365   51.0308 H       1  ZINC000465642058    0.0700
     41 H41         0.2763    4.5671   50.3658 H       1  ZINC000465642058    0.0800
     42 H42        -1.2298    2.1229   50.5049 H       1  ZINC000465642058    0.4000
     43 H43        -2.2685    0.9666   49.7213 H       1  ZINC000465642058    0.1000
     44 H44        -2.8546    0.3227   48.1689 H       1  ZINC000465642058    0.0900
     45 H45         0.9120   -2.5987   48.0317 H       1  ZINC000465642058    0.4400
     46 H46         2.4303   -0.6336   48.6470 H       1  ZINC000465642058    0.1800
     47 H47         0.8306    1.4121   49.0324 H       1  ZINC000465642058    0.1500
     48 H48        -2.9425    1.7298   46.3330 H       1  ZINC000465642058    0.0900
     49 H49        -2.2424    3.3644   46.4098 H       1  ZINC000465642058    0.0900
     50 H50        -2.0633    0.7182   44.4287 H       1  ZINC000465642058    0.1300
     51 H51        -0.1261   -0.0501   43.1173 H       1  ZINC000465642058    0.1200
     52 H52         2.1483    0.6393   43.7615 H       1  ZINC000465642058    0.1200
     53 H53         2.4854    2.0976   45.7168 H       1  ZINC000465642058    0.1200
     54 H54         0.5477    2.8696   47.0254 H       1  ZINC000465642058    0.1200
     55 H55         4.7522    0.9461   55.4666 H       1  ZINC000465642058    0.0700
     56 H56         3.8287    0.9974   56.9875 H       1  ZINC000465642058    0.0800
     57 H57         3.2361    0.0261   55.6186 H       1  ZINC000465642058    0.0700
     58 H58         1.3707    2.7467   56.7552 H       1  ZINC000465642058    0.0900
     59 H59         1.1918    1.0881   56.0927 H       1  ZINC000465642058    0.1000
@<TRIPOS>BOND
     1     1     2    1
     2     1    33    1
     3     1    34    1
     4     1    35    1
     5     2     3    1
     6     2    36    1
     7     2    37    1
     8     3     4    1
     9     4     9   ar
    10     4     5   ar
    11     5     6   ar
    12     5    38    1
    13     6    32    1
    14     6     7   ar
    15     7     8   ar
    16     7    28    1
    17     8     9   ar
    18     8    39    1
    19     9    10    1
    20    10    11    1
    21    10    40    1
    22    10    41    1
    23    11    12   am
    24    11    42    1
    25    12    13    2
    26    12    14   am
    27    14    15    1
    28    14    21    1
    29    15    16    1
    30    15    43    1
    31    15    44    1
    32    16    20    1
    33    16    17    2
    34    17    18    1
    35    18    19    1
    36    18    45    1
    37    19    20    2
    38    19    46    1
    39    20    47    1
    40    21    22    1
    41    21    48    1
    42    21    49    1
    43    22    27   ar
    44    22    23   ar
    45    23    24   ar
    46    23    50    1
    47    24    25   ar
    48    24    51    1
    49    25    26   ar
    50    25    52    1
    51    26    27   ar
    52    26    53    1
    53    27    54    1
    54    28    29    1
    55    29    30    1
    56    29    31    1
    57    29    32    1
    58    31    55    1
    59    31    56    1
    60    31    57    1
    61    32    58    1
    62    32    59    1
@<TRIPOS>SUBSTRUCTURE
     1 ZINC000465642058        1 TEMP              0 ****  ****    0 ROOT


##########                                Name:     oleObject79.pdb
##########                DOCK_Rotatable_Bonds:                  12
##########                         Heavy_Atoms:                  53
##########                    Molecular_Weight:             725.376
##########                DOCK_Rotatable_Bonds:                  12
##########                       Formal_Charge:          0.00050066
##########                     HBond_Acceptors:                   8
##########                        HBond_Donors:                   4
##########                         Heavy_Atoms:                  53
##########                          Grid_Score:          -40.546326
##########                     Grid_vdw_energy:          -40.109402
##########                      Grid_es_energy:           -0.436925
##########           Internal_energy_repulsive:           39.334496

@<TRIPOS>MOLECULE
oleObject79.pdb
 102 108 1 0 0
SMALL
NO_CHARGES


@<TRIPOS>ATOM
      1 C         -14.8678    2.1952   60.8875 C.ar    1  UNL        -0.0620
      2 C         -13.7268    1.9073   61.6493 C.ar    1  UNL        -0.0590
      3 C         -12.9186    0.7942   61.3460 C.ar    1  UNL        -0.0456
      4 C         -13.2600   -0.0469   60.2538 C.ar    1  UNL        -0.0185
      5 C         -14.4128    0.2603   59.4987 C.ar    1  UNL        -0.0565
      6 C         -15.2111    1.3698   59.8107 C.ar    1  UNL        -0.0619
      7 C         -12.3849   -1.2474   59.8399 C.3     1  UNL         0.0931
      8 C         -13.1173   -2.3468   59.0481 C.ar    1  UNL         0.0683
      9 C         -14.1525   -3.1162   59.6385 C.ar    1  UNL        -0.0272
     10 C         -14.7811   -4.1057   58.8592 C.ar    1  UNL        -0.0559
     11 C         -14.3687   -4.2963   57.5327 C.ar    1  UNL        -0.0435
     12 C         -13.3387   -3.4896   57.0277 C.ar    1  UNL         0.0272
     13 N         -12.7308   -2.5422   57.7656 N.ar    1  UNL        -0.2587
     14 C         -14.6018   -2.9077   61.0812 C.3     1  UNL        -0.0379
     15 N         -11.1006   -0.7976   59.2336 N.am    1  UNL        -0.2918
     16 C         -11.0909    0.2028   58.2592 C.2     1  UNL         0.2179
     17 O         -12.1184    0.4918   57.6687 O.2     1  UNL        -0.2772
     18 C          -9.7038    0.6027   57.6879 C.3     1  UNL         0.0361
     19 C          -9.4801    2.1416   57.6435 C.3     1  UNL        -0.0412
     20 C         -10.2844    2.8603   56.5251 C.3     1  UNL        -0.0453
     21 C         -10.1208    2.2315   55.1092 C.3     1  UNL        -0.0139
     22 C         -11.2179    2.8206   54.1796 C.3     1  UNL         0.0171
     23 N         -11.0520    2.3412   52.7924 N.pl3   1  UNL        -0.3290
     24 C          -9.7692    2.7273   52.1727 C.3     1  UNL         0.0115
     25 C          -8.5798    2.2179   53.0206 C.3     1  UNL        -0.0368
     26 C          -8.7261    2.6068   54.5133 C.3     1  UNL        -0.0446
     27 C         -12.1149    1.7818   52.0755 C.ar    1  UNL         0.0476
     28 C         -13.3140    2.5107   51.9524 C.ar    1  UNL        -0.0375
     29 C         -14.4167    1.9770   51.2680 C.ar    1  UNL        -0.0388
     30 C         -14.3550    0.6915   50.7087 C.ar    1  UNL         0.0318
     31 C         -13.1554   -0.0364   50.8116 C.ar    1  UNL        -0.0202
     32 C         -12.0460    0.4946   51.4915 C.ar    1  UNL         0.0636
     33 CL        -10.6297   -0.5328   51.6312 Cl      1  UNL        -0.0822
     34 N         -15.4698    0.1944   50.0366 N.pl3   1  UNL        -0.3149
     35 C         -15.6189   -0.8823   49.1639 C.ar    1  UNL         0.0302
     36 C         -14.8093   -1.0421   48.0242 C.ar    1  UNL        -0.0402
     37 C         -14.9716   -2.1543   47.1828 C.ar    1  UNL        -0.0525
     38 C         -15.9432   -3.1490   47.4554 C.ar    1  UNL        -0.0182
     39 C         -16.7370   -2.9816   48.6173 C.ar    1  UNL        -0.0525
     40 C         -16.5704   -1.8712   49.4610 C.ar    1  UNL        -0.0402
     41 C         -16.1183   -4.3385   46.5564 C.ar    1  UNL        -0.0177
     42 C         -17.1330   -5.2998   46.7970 C.ar    1  UNL        -0.0439
     43 C         -17.3094   -6.4256   45.9632 C.ar    1  UNL         0.0111
     44 C         -16.4454   -6.5918   44.8611 C.ar    1  UNL        -0.0518
     45 C         -15.4353   -5.6546   44.6011 C.ar    1  UNL        -0.0609
     46 C         -15.2740   -4.5408   45.4376 C.ar    1  UNL        -0.0543
     47 C         -18.3218   -7.3551   46.2222 C.2     1  UNL         0.1014
     48 N         -19.1241   -7.2356   47.2153 N.3     1  UNL        -0.2892
     49 N         -18.4906   -8.4254   45.4337 N.3     1  UNL        -0.2870
     50 C         -10.3228    0.6868   55.2021 C.3     1  UNL        -0.0453
     51 C          -9.4464    0.0104   56.2778 C.3     1  UNL        -0.0412
     52 C          -9.8484   -1.4187   59.7180 C.3     1  UNL         0.0037
     53 C         -11.6805    0.5542   62.2034 C.3     1  UNL        -0.0394
     54 H         -15.4821    3.0576   61.1277 H       1  UNL         0.0623
     55 H         -13.4660    2.5590   62.4782 H       1  UNL         0.0626
     56 H         -14.6953   -0.3654   58.6587 H       1  UNL         0.0627
     57 H         -16.0927    1.5900   59.2159 H       1  UNL         0.0623
     58 H         -12.1071   -1.7539   60.7656 H       1  UNL         0.0626
     59 H         -15.5778   -4.7171   59.2735 H       1  UNL         0.0627
     60 H         -14.8373   -5.0514   56.9086 H       1  UNL         0.0639
     61 H         -12.9894   -3.6036   56.0022 H       1  UNL         0.0840
     62 H         -13.7804   -3.0941   61.7835 H       1  UNL         0.0280
     63 H         -15.4207   -3.5860   61.3513 H       1  UNL         0.0280
     64 H         -14.9614   -1.8839   61.2419 H       1  UNL         0.0280
     65 H          -8.9537    0.1898   58.3733 H       1  UNL         0.0401
     66 H          -8.4115    2.3360   57.4869 H       1  UNL         0.0275
     67 H          -9.7293    2.5821   58.6175 H       1  UNL         0.0275
     68 H          -9.9964    3.9192   56.4998 H       1  UNL         0.0273
     69 H         -11.3473    2.8567   56.7935 H       1  UNL         0.0273
     70 H         -11.1610    3.9168   54.1940 H       1  UNL         0.0474
     71 H         -12.2056    2.5354   54.5651 H       1  UNL         0.0474
     72 H          -9.7179    3.8217   52.1086 H       1  UNL         0.0468
     73 H          -9.6916    2.3354   51.1511 H       1  UNL         0.0468
     74 H          -7.6438    2.6289   52.6224 H       1  UNL         0.0283
     75 H          -8.5025    1.1281   52.9289 H       1  UNL         0.0283
     76 H          -8.5865    3.6929   54.5920 H       1  UNL         0.0273
     77 H          -7.9118    2.1541   55.0908 H       1  UNL         0.0273
     78 H         -13.3923    3.5043   52.3841 H       1  UNL         0.0644
     79 H         -15.3293    2.5608   51.1865 H       1  UNL         0.0643
     80 H         -13.0746   -1.0203   50.3602 H       1  UNL         0.0659
     81 H         -16.3290    0.6919   50.2313 H       1  UNL         0.1528
     82 H         -14.0369   -0.3169   47.7925 H       1  UNL         0.0643
     83 H         -14.3403   -2.2333   46.3033 H       1  UNL         0.0630
     84 H         -17.4775   -3.7289   48.8840 H       1  UNL         0.0630
     85 H         -17.1899   -1.7768   50.3485 H       1  UNL         0.0643
     86 H         -17.7991   -5.1621   47.6431 H       1  UNL         0.0637
     87 H         -16.5595   -7.4407   44.1926 H       1  UNL         0.0630
     88 H         -14.7750   -5.7923   43.7494 H       1  UNL         0.0623
     89 H         -14.4729   -3.8403   45.2230 H       1  UNL         0.0629
     90 H         -18.7482   -7.7052   48.0419 H       1  UNL         0.1889
     91 H         -19.4189   -8.8268   45.3145 H       1  UNL         0.1258
     92 H         -18.0261   -8.4587   44.5280 H       1  UNL         0.1258
     93 H         -10.1372    0.2033   54.2366 H       1  UNL         0.0273
     94 H         -11.3741    0.4845   55.4367 H       1  UNL         0.0273
     95 H          -8.3876    0.1331   56.0206 H       1  UNL         0.0275
     96 H          -9.6269   -1.0695   56.2661 H       1  UNL         0.0275
     97 H          -9.2506   -1.7939   58.8799 H       1  UNL         0.0433
     98 H         -10.0509   -2.2625   60.3875 H       1  UNL         0.0433
     99 H          -9.2617   -0.6707   60.2655 H       1  UNL         0.0433
    100 H         -11.6197    1.2628   63.0388 H       1  UNL         0.0280
    101 H         -10.7643    0.6700   61.6109 H       1  UNL         0.0280
    102 H         -11.6866   -0.4553   62.6334 H       1  UNL         0.0280
@<TRIPOS>BOND
     1     1     2   ar
     2     1     6   ar
     3     1    54    1
     4     2     3   ar
     5     2    55    1
     6     3     4   ar
     7     3    53    1
     8     4     5   ar
     9     4     7    1
    10     5     6   ar
    11     5    56    1
    12     6    57    1
    13     7     8    1
    14     7    15    1
    15     7    58    1
    16     8     9   ar
    17     8    13   ar
    18     9    10   ar
    19     9    14    1
    20    10    11   ar
    21    10    59    1
    22    11    12   ar
    23    11    60    1
    24    12    13   ar
    25    12    61    1
    26    14    62    1
    27    14    63    1
    28    14    64    1
    29    15    16   am
    30    15    52    1
    31    16    17    2
    32    16    18    1
    33    18    19    1
    34    18    51    1
    35    18    65    1
    36    19    20    1
    37    19    66    1
    38    19    67    1
    39    20    21    1
    40    20    68    1
    41    20    69    1
    42    21    22    1
    43    21    26    1
    44    21    50    1
    45    22    23    1
    46    22    70    1
    47    22    71    1
    48    23    24    1
    49    23    27    1
    50    24    25    1
    51    24    72    1
    52    24    73    1
    53    25    26    1
    54    25    74    1
    55    25    75    1
    56    26    76    1
    57    26    77    1
    58    27    28   ar
    59    27    32   ar
    60    28    29   ar
    61    28    78    1
    62    29    30   ar
    63    29    79    1
    64    30    31   ar
    65    30    34    1
    66    31    32   ar
    67    31    80    1
    68    32    33    1
    69    34    35    1
    70    34    81    1
    71    35    36   ar
    72    35    40   ar
    73    36    37   ar
    74    36    82    1
    75    37    38   ar
    76    37    83    1
    77    38    39   ar
    78    38    41    1
    79    39    40   ar
    80    39    84    1
    81    40    85    1
    82    41    42   ar
    83    41    46   ar
    84    42    43   ar
    85    42    86    1
    86    43    44   ar
    87    43    47    1
    88    44    45   ar
    89    44    87    1
    90    45    46   ar
    91    45    88    1
    92    46    89    1
    93    47    48    1
    94    47    49    1
    95    48    90    1
    96    49    91    1
    97    49    92    1
    98    50    51    1
    99    50    93    1
   100    50    94    1
   101    51    95    1
   102    51    96    1
   103    52    97    1
   104    52    98    1
   105    52    99    1
   106    53   100    1
   107    53   101    1
   108    53   102    1
@<TRIPOS>SUBSTRUCTURE
     1 UNL         1 TEMP              0 ****  ****    0 ROOT


##########                                Name:    ZINC001596273020
##########                DOCK_Rotatable_Bonds:                  11
##########                         Heavy_Atoms:                  25
##########                    Molecular_Weight:             355.478
##########                DOCK_Rotatable_Bonds:                  11
##########                       Formal_Charge:          -0.0499996
##########                     HBond_Acceptors:                   7
##########                        HBond_Donors:                   2
##########                         Heavy_Atoms:                  25
##########                          Grid_Score:          -40.088860
##########                     Grid_vdw_energy:          -34.917366
##########                      Grid_es_energy:           -5.171494
##########           Internal_energy_repulsive:           23.812712

@<TRIPOS>MOLECULE
ZINC001596273020
 58 59 1 0 0
SMALL
USER_CHARGES


@<TRIPOS>ATOM
      1 C1          0.5498    2.8333   57.7445 C.3     1  ZINC001596273020   -0.1900
      2 C2          0.3070    3.0720   56.2529 C.3     1  ZINC001596273020   -0.0200
      3 N3         -0.9201    2.3783   55.8394 N.4     1  ZINC001596273020   -0.3900
      4 H4         -0.8319    1.3927   56.0363 H       1  ZINC001596273020    0.4300
      5 C5         -2.0649    2.9251   56.5799 C.3     1  ZINC001596273020   -0.0100
      6 C6         -3.3348    2.1672   56.1879 C.3     1  ZINC001596273020   -0.1900
      7 C7         -1.1307    2.5728   54.3987 C.3     1  ZINC001596273020   -0.0100
      8 C8         -1.4189    4.0494   54.1200 C.3     1  ZINC001596273020    0.0300
      9 O9         -1.5819    4.2457   52.7139 O.3     1  ZINC001596273020   -0.3900
     10 C10        -2.8759    3.8892   52.2235 C.3     1  ZINC001596273020    0.0500
     11 C11        -2.9097    4.0590   50.7033 C.3     1  ZINC001596273020    0.1400
     12 N12        -1.8733    3.2211   50.0952 N.am    1  ZINC001596273020   -0.7500
     13 C13        -2.1887    2.0027   49.6129 C.2     1  ZINC001596273020    0.7200
     14 O14        -3.3332    1.5984   49.6840 O.2     1  ZINC001596273020   -0.6000
     15 N15        -1.2355    1.2325   49.0519 N.am    1  ZINC001596273020   -0.6300
     16 C16        -1.3901   -0.1209   48.4636 C.3     1  ZINC001596273020    0.1100
     17 C17        -0.5104   -0.0643   47.1815 C.3     1  ZINC001596273020   -0.0800
     18 H18        -0.0773   -1.0459   46.9888 H       1  ZINC001596273020    0.1200
     19 C19        -1.4102    0.3331   46.0284 C.3     1  ZINC001596273020   -0.1000
     20 C20        -0.6733    1.1025   44.9410 C.3     1  ZINC001596273020   -0.1200
     21 C21        -0.0668    2.3606   45.5764 C.3     1  ZINC001596273020   -0.1200
     22 C22         1.0433    1.9110   46.5209 C.3     1  ZINC001596273020   -0.0800
     23 C23         0.5855    0.9167   47.5354 C.3     1  ZINC001596273020   -0.1400
     24 C24         1.7910    0.0694   47.8510 C.2     1  ZINC001596273020    0.5000
     25 O25         2.9073    0.4660   47.5629 O.co2   1  ZINC001596273020   -0.6900
     26 O26         1.6501   -1.0131   48.3943 O.co2   1  ZINC001596273020   -0.6900
     27 C27         0.2030    1.5495   48.8778 C.3     1  ZINC001596273020    0.1600
     28 H28        -0.2388    3.3149   58.3226 H       1  ZINC001596273020    0.0800
     29 H29         0.5458    1.7622   57.9464 H       1  ZINC001596273020    0.0800
     30 H30         1.5154    3.2528   58.0271 H       1  ZINC001596273020    0.1000
     31 H31         0.1997    4.1410   56.0688 H       1  ZINC001596273020    0.1300
     32 H32         1.1518    2.6878   55.6812 H       1  ZINC001596273020    0.1300
     33 H33        -1.8916    2.8147   57.6503 H       1  ZINC001596273020    0.1300
     34 H34        -2.1830    3.9814   56.3381 H       1  ZINC001596273020    0.1300
     35 H35        -3.5695    2.3675   55.1425 H       1  ZINC001596273020    0.0800
     36 H36        -3.1769    1.0976   56.3264 H       1  ZINC001596273020    0.0800
     37 H37        -4.1629    2.4965   56.8157 H       1  ZINC001596273020    0.1000
     38 H38        -0.2356    2.2686   53.8563 H       1  ZINC001596273020    0.1400
     39 H39        -1.9771    1.9693   54.0705 H       1  ZINC001596273020    0.1400
     40 H40        -2.3321    4.3451   54.6364 H       1  ZINC001596273020    0.1000
     41 H41        -0.5867    4.6558   54.4775 H       1  ZINC001596273020    0.0700
     42 H42        -3.0873    2.8506   52.4778 H       1  ZINC001596273020    0.0700
     43 H43        -3.6273    4.5348   52.6780 H       1  ZINC001596273020    0.0700
     44 H44        -3.8872    3.7591   50.3259 H       1  ZINC001596273020    0.0900
     45 H45        -2.7274    5.1034   50.4504 H       1  ZINC001596273020    0.0700
     46 H46        -0.9600    3.5432   50.0394 H       1  ZINC001596273020    0.3900
     47 H47        -1.0192   -0.8821   49.1500 H       1  ZINC001596273020    0.0700
     48 H48        -2.4321   -0.3103   48.2058 H       1  ZINC001596273020    0.0600
     49 H49        -1.8400   -0.5682   45.5913 H       1  ZINC001596273020    0.0500
     50 H50        -2.2189    0.9549   46.4121 H       1  ZINC001596273020    0.0400
     51 H51         0.1196    0.4818   44.5236 H       1  ZINC001596273020    0.0700
     52 H52        -1.3716    1.3874   44.1540 H       1  ZINC001596273020    0.0500
     53 H53         0.3464    3.0045   44.8000 H       1  ZINC001596273020    0.0600
     54 H54        -0.8326    2.8985   46.1353 H       1  ZINC001596273020    0.0500
     55 H55         1.8459    1.4674   45.9315 H       1  ZINC001596273020    0.0600
     56 H56         1.4362    2.7852   47.0402 H       1  ZINC001596273020    0.0600
     57 H57         0.3572    2.6280   48.8470 H       1  ZINC001596273020    0.0700
     58 H58         0.7831    1.1048   49.6864 H       1  ZINC001596273020    0.0700
@<TRIPOS>BOND
     1     1     2    1
     2     1    28    1
     3     1    29    1
     4     1    30    1
     5     2     3    1
     6     2    31    1
     7     2    32    1
     8     3     4    1
     9     3     5    1
    10     3     7    1
    11     5     6    1
    12     5    33    1
    13     5    34    1
    14     6    35    1
    15     6    36    1
    16     6    37    1
    17     7     8    1
    18     7    38    1
    19     7    39    1
    20     8     9    1
    21     8    40    1
    22     8    41    1
    23     9    10    1
    24    10    11    1
    25    10    42    1
    26    10    43    1
    27    11    12    1
    28    11    44    1
    29    11    45    1
    30    12    13   am
    31    12    46    1
    32    13    14    2
    33    13    15   am
    34    15    27    1
    35    15    16    1
    36    16    17    1
    37    16    47    1
    38    16    48    1
    39    17    18    1
    40    17    23    1
    41    17    19    1
    42    19    20    1
    43    19    49    1
    44    19    50    1
    45    20    21    1
    46    20    51    1
    47    20    52    1
    48    21    22    1
    49    21    53    1
    50    21    54    1
    51    22    23    1
    52    22    55    1
    53    22    56    1
    54    23    24    1
    55    23    27    1
    56    24    25   ar
    57    24    26   ar
    58    27    57    1
    59    27    58    1
@<TRIPOS>SUBSTRUCTURE
     1 ZINC001596273020        1 TEMP              0 ****  ****    0 ROOT


##########                                Name:    ZINC000770814339
##########                DOCK_Rotatable_Bonds:                  13
##########                         Heavy_Atoms:                  28
##########                    Molecular_Weight:             409.423
##########                DOCK_Rotatable_Bonds:                  13
##########                       Formal_Charge:          -0.0100008
##########                     HBond_Acceptors:                  12
##########                        HBond_Donors:                   4
##########                         Heavy_Atoms:                  28
##########                          Grid_Score:          -39.751625
##########                     Grid_vdw_energy:          -35.681210
##########                      Grid_es_energy:           -4.070416
##########           Internal_energy_repulsive:           13.077325

@<TRIPOS>MOLECULE
ZINC000770814339
 47 48 1 0 0
SMALL
USER_CHARGES


@<TRIPOS>ATOM
      1 C1          5.2459    1.0072   55.3500 C.3     1  ZINC000770814339   -0.1500
      2 C2          3.9178    0.4079   55.8171 C.3     1  ZINC000770814339    0.0600
      3 O3          3.0933    1.4524   56.3981 O.3     1  ZINC000770814339   -0.3500
      4 C4          2.1842    2.0282   55.5959 C.2     1  ZINC000770814339    0.4700
      5 O5          2.2736    1.9074   54.3971 O.2     1  ZINC000770814339   -0.4800
      6 C6          1.0520    2.8255   56.1905 C.3     1  ZINC000770814339    0.0700
      7 O7         -0.1766    2.4464   55.5668 O.3     1  ZINC000770814339   -0.1800
      8 N8         -0.4364    3.1207   54.3491 N.2     1  ZINC000770814339   -0.2800
      9 C9         -1.6653    3.3365   53.9733 C.2     1  ZINC000770814339    0.1800
     10 C10        -1.9374    4.0438   52.6996 C.2     1  ZINC000770814339    0.5900
     11 O11        -1.9068    5.2579   52.6604 O.2     1  ZINC000770814339   -0.5100
     12 N12        -2.2188    3.3404   51.5850 N.am    1  ZINC000770814339   -0.7000
     13 C13        -2.4861    4.0395   50.3256 C.3     1  ZINC000770814339    0.1500
     14 C14        -2.0208    3.1901   49.1710 C.ar    1  ZINC000770814339   -0.0600
     15 C15        -2.3757    1.8556   49.1074 C.ar    1  ZINC000770814339   -0.1200
     16 C16        -1.9489    1.0766   48.0483 C.ar    1  ZINC000770814339   -0.0200
     17 C17        -1.1676    1.6322   47.0524 C.ar    1  ZINC000770814339   -0.6700
     18 S18        -0.6231    0.6390   45.7026 S.o2    1  ZINC000770814339    2.7000
     19 N19        -1.4340    1.1566   44.3547 N.am    1  ZINC000770814339   -1.2500
     20 O20         0.7457    0.9594   45.4952 O.2     1  ZINC000770814339   -0.9600
     21 O21        -1.0815   -0.6803   45.9648 O.2     1  ZINC000770814339   -0.9600
     22 C22        -0.8138    2.9670   47.1152 C.ar    1  ZINC000770814339   -0.0200
     23 C23        -1.2438    3.7470   48.1724 C.ar    1  ZINC000770814339   -0.1200
     24 C24        -2.7868    2.8766   54.8164 C.2     1  ZINC000770814339    0.0600
     25 C25        -4.0660    3.3897   54.8287 C.2     1  ZINC000770814339   -0.2000
     26 C26        -4.8028    2.6673   55.7660 C.2     1  ZINC000770814339    0.0400
     27 N27        -4.0257    1.7605   56.3023 N.2     1  ZINC000770814339   -0.2600
     28 N28        -2.7534    1.8598   55.7257 N.pl3   1  ZINC000770814339   -0.4400
     29 H29         5.8648    0.2231   54.9139 H       1  ZINC000770814339    0.0800
     30 H30         5.0542    1.7769   54.6025 H       1  ZINC000770814339    0.0700
     31 H31         5.7647    1.4484   56.2011 H       1  ZINC000770814339    0.0700
     32 H32         3.3990   -0.0333   54.9661 H       1  ZINC000770814339    0.0700
     33 H33         4.1095   -0.3618   56.5647 H       1  ZINC000770814339    0.0700
     34 H34         0.9920    2.6288   57.2609 H       1  ZINC000770814339    0.1100
     35 H35         1.2302    3.8881   56.0258 H       1  ZINC000770814339    0.1100
     36 H36        -2.2444    2.3712   51.6166 H       1  ZINC000770814339    0.4100
     37 H37        -3.5562    4.2243   50.2327 H       1  ZINC000770814339    0.0900
     38 H38        -1.9512    4.9892   50.3167 H       1  ZINC000770814339    0.0900
     39 H39        -2.9861    1.4216   49.8855 H       1  ZINC000770814339    0.1400
     40 H40        -2.2256    0.0338   47.9991 H       1  ZINC000770814339    0.1500
     41 H41        -2.4028    1.1195   44.3275 H       1  ZINC000770814339    0.4200
     42 H42        -0.9400    1.4970   43.5924 H       1  ZINC000770814339    0.4200
     43 H43        -0.2037    3.4012   46.3369 H       1  ZINC000770814339    0.1500
     44 H44        -0.9674    4.7899   48.2215 H       1  ZINC000770814339    0.1400
     45 H45        -4.4315    4.2049   54.2218 H       1  ZINC000770814339    0.1700
     46 H46        -5.8424    2.8292   56.0097 H       1  ZINC000770814339    0.1900
     47 H47        -1.9844    1.3083   55.9387 H       1  ZINC000770814339    0.4500
@<TRIPOS>BOND
     1     1     2    1
     2     1    29    1
     3     1    30    1
     4     1    31    1
     5     2     3    1
     6     2    32    1
     7     2    33    1
     8     3     4    1
     9     4     5    2
    10     4     6    1
    11     6     7    1
    12     6    34    1
    13     6    35    1
    14     7     8    1
    15     8     9    2
    16     9    10    1
    17     9    24    1
    18    10    11    2
    19    10    12   am
    20    12    13    1
    21    12    36    1
    22    13    14    1
    23    13    37    1
    24    13    38    1
    25    14    23   ar
    26    14    15   ar
    27    15    16   ar
    28    15    39    1
    29    16    17   ar
    30    16    40    1
    31    17    18    1
    32    17    22   ar
    33    18    19   am
    34    18    20    2
    35    18    21    2
    36    19    41    1
    37    19    42    1
    38    22    23   ar
    39    22    43    1
    40    23    44    1
    41    24    28    1
    42    24    25    2
    43    25    26    1
    44    25    45    1
    45    26    27    2
    46    26    46    1
    47    27    28    1
    48    28    47    1
@<TRIPOS>SUBSTRUCTURE
     1 ZINC000770814339        1 TEMP              0 ****  ****    0 ROOT


##########                                Name:    ZINC000929592477
##########                DOCK_Rotatable_Bonds:                   7
##########                         Heavy_Atoms:                  28
##########                    Molecular_Weight:             399.517
##########                DOCK_Rotatable_Bonds:                   7
##########                       Formal_Charge:         -8.9407e-08
##########                     HBond_Acceptors:                   8
##########                        HBond_Donors:                   3
##########                         Heavy_Atoms:                  28
##########                          Grid_Score:          -39.115158
##########                     Grid_vdw_energy:          -35.773392
##########                      Grid_es_energy:           -3.341766
##########           Internal_energy_repulsive:          194.431793

@<TRIPOS>MOLECULE
ZINC000929592477
 53 56 1 0 0
SMALL
USER_CHARGES


@<TRIPOS>ATOM
      1 O1         -2.3566    1.9874   48.9407 O.2     1  ZINC000929592477   -0.5700
      2 C2         -1.9898    2.8099   48.1237 C.2     1  ZINC000929592477    0.7100
      3 N3         -2.0974    4.1253   48.3969 N.am    1  ZINC000929592477   -0.6800
      4 C4         -2.6373    4.5453   49.6206 C.ar    1  ZINC000929592477    0.1600
      5 C5         -3.0569    3.6060   50.5530 C.ar    1  ZINC000929592477   -0.1300
      6 C6         -3.5891    4.0190   51.7580 C.ar    1  ZINC000929592477   -0.0800
      7 C7         -3.7043    5.3751   52.0379 C.ar    1  ZINC000929592477   -0.1000
      8 S8         -4.3827    5.9030   53.5759 S.3     1  ZINC000929592477   -0.1100
      9 C9         -4.7650    4.3390   54.4116 C.3     1  ZINC000929592477   -0.0800
     10 C10        -3.4643    3.5554   54.7168 C.3     1  ZINC000929592477   -0.1200
     11 C11        -3.8838    2.6424   55.8956 C.3     1  ZINC000929592477   -0.1200
     12 C12        -4.8203    3.5268   56.7443 C.3     1  ZINC000929592477   -0.1200
     13 C13        -5.3807    4.6056   55.8008 C.3     1  ZINC000929592477   -0.1000
     14 C14        -3.2837    6.3147   51.1049 C.ar    1  ZINC000929592477   -0.1200
     15 C15        -2.7469    5.9006   49.9023 C.ar    1  ZINC000929592477   -0.1000
     16 N16        -1.4708    2.4062   46.9472 N.am    1  ZINC000929592477   -0.7300
     17 C17        -1.3539    0.9764   46.6503 C.3     1  ZINC000929592477    0.1500
     18 H18        -2.1747    0.4213   47.1043 H       1  ZINC000929592477    0.1200
     19 C19         0.0141    0.4257   47.1325 C.3     1  ZINC000929592477   -0.1400
     20 C20         0.9393    0.8144   45.9523 C.3     1  ZINC000929592477    0.1100
     21 N21         0.1113    0.6292   44.7468 N.pl3   1  ZINC000929592477   -0.6000
     22 C22         0.5867    0.3926   43.4732 C.2     1  ZINC000929592477    0.4600
     23 C23         1.8422    0.8446   43.1024 C.2     1  ZINC000929592477   -0.4000
     24 C24         2.2876    0.5833   41.7993 C.2     1  ZINC000929592477    0.5300
     25 O25         3.3875    0.9629   41.4300 O.2     1  ZINC000929592477   -0.5500
     26 N26         1.4774   -0.0960   40.9607 N.am    1  ZINC000929592477   -0.6400
     27 C27         0.2643   -0.5122   41.3755 C.2     1  ZINC000929592477    0.4100
     28 N28        -0.1624   -0.2819   42.5867 N.2     1  ZINC000929592477   -0.5700
     29 C29        -1.3099    0.7371   45.1263 C.3     1  ZINC000929592477    0.1100
     30 H30        -1.8011    4.7815   47.7468 H       1  ZINC000929592477    0.4100
     31 H31        -2.9675    2.5519   50.3354 H       1  ZINC000929592477    0.1300
     32 H32        -3.9162    3.2883   52.4829 H       1  ZINC000929592477    0.1300
     33 H33        -5.4411    3.7380   53.8037 H       1  ZINC000929592477    0.1000
     34 H34        -3.1613    2.9597   53.8556 H       1  ZINC000929592477    0.0700
     35 H35        -2.6663    4.2338   55.0186 H       1  ZINC000929592477    0.0800
     36 H36        -4.4166    1.7654   55.5280 H       1  ZINC000929592477    0.0700
     37 H37        -3.0109    2.3440   56.4763 H       1  ZINC000929592477    0.0700
     38 H38        -5.6346    2.9264   57.1502 H       1  ZINC000929592477    0.0700
     39 H39        -4.2603    3.9938   57.5544 H       1  ZINC000929592477    0.0700
     40 H40        -5.0925    5.5960   56.1531 H       1  ZINC000929592477    0.0700
     41 H41        -6.4667    4.5286   55.7488 H       1  ZINC000929592477    0.0800
     42 H42        -3.3729    7.3689   51.3220 H       1  ZINC000929592477    0.1300
     43 H43        -2.4196    6.6309   49.1770 H       1  ZINC000929592477    0.1400
     44 H44        -1.1746    3.0624   46.2971 H       1  ZINC000929592477    0.4000
     45 H45         0.3295    0.9152   48.0539 H       1  ZINC000929592477    0.0900
     46 H46        -0.0232   -0.6562   47.2597 H       1  ZINC000929592477    0.0900
     47 H47         1.2516    1.8548   46.0420 H       1  ZINC000929592477    0.0700
     48 H48         1.8088    0.1579   45.9198 H       1  ZINC000929592477    0.0800
     49 H49         2.4633    1.3857   43.8008 H       1  ZINC000929592477    0.1500
     50 H50         1.7692   -0.2853   40.0552 H       1  ZINC000929592477    0.4200
     51 H51        -0.3692   -1.0541   40.6888 H       1  ZINC000929592477    0.2100
     52 H52        -1.8309   -0.1877   44.8786 H       1  ZINC000929592477    0.0900
     53 H53        -1.7704    1.5758   44.6044 H       1  ZINC000929592477    0.0800
@<TRIPOS>BOND
     1     1     2    2
     2     2     3   am
     3     2    16   am
     4     3     4    1
     5     3    30    1
     6     4    15   ar
     7     4     5   ar
     8     5     6   ar
     9     5    31    1
    10     6     7   ar
    11     6    32    1
    12     7     8    1
    13     7    14   ar
    14     8     9    1
    15     9    13    1
    16     9    10    1
    17     9    33    1
    18    10    11    1
    19    10    34    1
    20    10    35    1
    21    11    12    1
    22    11    36    1
    23    11    37    1
    24    12    13    1
    25    12    38    1
    26    12    39    1
    27    13    40    1
    28    13    41    1
    29    14    15   ar
    30    14    42    1
    31    15    43    1
    32    16    17    1
    33    16    44    1
    34    17    18    1
    35    17    29    1
    36    17    19    1
    37    19    20    1
    38    19    45    1
    39    19    46    1
    40    20    21    1
    41    20    47    1
    42    20    48    1
    43    21    22    1
    44    21    29    1
    45    22    28    1
    46    22    23    2
    47    23    24    1
    48    23    49    1
    49    24    25    2
    50    24    26   am
    51    26    27    1
    52    26    50    1
    53    27    28    2
    54    27    51    1
    55    29    52    1
    56    29    53    1
@<TRIPOS>SUBSTRUCTURE
     1 ZINC000929592477        1 TEMP              0 ****  ****    0 ROOT


##########                                Name:    ZINC000508765459
##########                DOCK_Rotatable_Bonds:                  10
##########                         Heavy_Atoms:                  29
##########                    Molecular_Weight:               405.5
##########                DOCK_Rotatable_Bonds:                  10
##########                       Formal_Charge:         -6.4075e-07
##########                     HBond_Acceptors:                  10
##########                        HBond_Donors:                   1
##########                         Heavy_Atoms:                  29
##########                          Grid_Score:          -37.977650
##########                     Grid_vdw_energy:          -36.896782
##########                      Grid_es_energy:           -1.080867
##########           Internal_energy_repulsive:           22.533638

@<TRIPOS>MOLECULE
ZINC000508765459
 60 62 1 0 0
SMALL
USER_CHARGES


@<TRIPOS>ATOM
      1 C1          0.0872   -0.1479   41.8942 C.3     1  ZINC000508765459    0.0300
      2 O2         -0.2207   -0.6836   43.1828 O.3     1  ZINC000508765459   -0.3900
      3 C3         -0.6844    0.2894   44.1209 C.3     1  ZINC000508765459    0.0500
      4 C4         -1.2740   -0.4197   45.3417 C.3     1  ZINC000508765459    0.1100
      5 N5         -1.3088    0.5074   46.4755 N.am    1  ZINC000508765459   -0.5900
      6 C6         -1.3884    1.9321   46.1830 C.3     1  ZINC000508765459    0.1000
      7 C7         -1.9483    2.7014   47.3811 C.3     1  ZINC000508765459    0.1200
      8 N8         -1.2492    2.2389   48.5919 N.am    1  ZINC000508765459   -0.6400
      9 C9         -0.5118    3.0822   49.3411 C.2     1  ZINC000508765459    0.7100
     10 O10        -0.4147    4.2517   49.0228 O.2     1  ZINC000508765459   -0.5800
     11 N11         0.1180    2.6293   50.4432 N.am    1  ZINC000508765459   -0.7400
     12 C12         0.9182    3.5465   51.2587 C.3     1  ZINC000508765459    0.1400
     13 C13         0.9659    3.0373   52.7007 C.3     1  ZINC000508765459   -0.1400
     14 C14         1.8257    3.9793   53.5459 C.3     1  ZINC000508765459    0.0600
     15 N15         1.9197    3.4590   54.9164 N.3     1  ZINC000508765459   -0.5400
     16 C16         2.6683    2.1948   54.9498 C.3     1  ZINC000508765459    0.0500
     17 C17         2.8121    1.7283   56.4003 C.3     1  ZINC000508765459    0.0700
     18 N18         1.4778    1.5627   56.9934 N.3     1  ZINC000508765459   -0.4600
     19 C19         1.5664    1.0726   58.2848 C.ar    1  ZINC000508765459    0.4900
     20 N20         0.5276    0.4390   58.8089 N.ar    1  ZINC000508765459   -0.5500
     21 C21         0.5795   -0.0419   60.0400 C.ar    1  ZINC000508765459    0.1700
     22 C22         1.7383    0.1239   60.7822 C.ar    1  ZINC000508765459   -0.2600
     23 C23         2.8061    0.7916   60.2034 C.ar    1  ZINC000508765459    0.1700
     24 N24         2.6902    1.2435   58.9657 N.ar    1  ZINC000508765459   -0.5300
     25 C25         0.7292    2.8268   56.9601 C.3     1  ZINC000508765459    0.0700
     26 C26         0.5854    3.2934   55.5096 C.3     1  ZINC000508765459    0.0600
     27 C27        -1.3888    0.8197   48.9504 C.3     1  ZINC000508765459    0.1000
     28 C28        -1.2708   -0.0126   47.7032 C.2     1  ZINC000508765459    0.5100
     29 O29        -1.1258   -1.2111   47.8190 O.2     1  ZINC000508765459   -0.5400
     30 H30         0.8703    0.6041   41.9910 H       1  ZINC000508765459    0.0400
     31 H31         0.4320   -0.9492   41.2405 H       1  ZINC000508765459    0.0900
     32 H32        -0.8056    0.3098   41.4681 H       1  ZINC000508765459    0.0400
     33 H33         0.1488    0.9187   44.4336 H       1  ZINC000508765459    0.0500
     34 H34        -1.4514    0.9075   43.6542 H       1  ZINC000508765459    0.0600
     35 H35        -2.2864   -0.7536   45.1143 H       1  ZINC000508765459    0.1100
     36 H36        -0.6559   -1.2809   45.5955 H       1  ZINC000508765459    0.0900
     37 H37        -0.3917    2.3067   45.9501 H       1  ZINC000508765459    0.0700
     38 H38        -2.0390    2.0858   45.3221 H       1  ZINC000508765459    0.1000
     39 H39        -1.7790    3.7695   47.2439 H       1  ZINC000508765459    0.1200
     40 H40        -3.0166    2.5070   47.4763 H       1  ZINC000508765459    0.0800
     41 H41         0.0415    1.6961   50.6966 H       1  ZINC000508765459    0.4000
     42 H42         1.9306    3.5995   50.8583 H       1  ZINC000508765459    0.0700
     43 H43         0.4669    4.5385   51.2384 H       1  ZINC000508765459    0.0700
     44 H44        -0.0446    3.0041   53.1079 H       1  ZINC000508765459    0.0700
     45 H45         1.3980    2.0368   52.7186 H       1  ZINC000508765459    0.0800
     46 H46         2.8239    4.0465   53.1135 H       1  ZINC000508765459    0.0800
     47 H47         1.3700    4.9694   53.5636 H       1  ZINC000508765459    0.0400
     48 H48         2.1315    1.4391   54.3762 H       1  ZINC000508765459    0.0500
     49 H49         3.6570    2.3462   54.5167 H       1  ZINC000508765459    0.0900
     50 H50         3.3419    0.7760   56.4252 H       1  ZINC000508765459    0.0900
     51 H51         3.3725    2.4715   56.9675 H       1  ZINC000508765459    0.0600
     52 H52        -0.2707   -0.5573   60.4618 H       1  ZINC000508765459    0.1700
     53 H53         1.8075   -0.2585   61.7899 H       1  ZINC000508765459    0.1500
     54 H54         3.7231    0.9379   60.7550 H       1  ZINC000508765459    0.1700
     55 H55        -0.2596    2.6755   57.3932 H       1  ZINC000508765459    0.1000
     56 H56         1.2659    3.5825   57.5337 H       1  ZINC000508765459    0.0500
     57 H57         0.0556    4.2457   55.4848 H       1  ZINC000508765459    0.0900
     58 H58         0.0249    2.5502   54.9424 H       1  ZINC000508765459    0.0500
     59 H59        -0.6037    0.5419   49.6537 H       1  ZINC000508765459    0.1100
     60 H60        -2.3649    0.6525   49.4057 H       1  ZINC000508765459    0.1100
@<TRIPOS>BOND
     1     1     2    1
     2     1    30    1
     3     1    31    1
     4     1    32    1
     5     2     3    1
     6     3     4    1
     7     3    33    1
     8     3    34    1
     9     4     5    1
    10     4    35    1
    11     4    36    1
    12     5    28   am
    13     5     6    1
    14     6     7    1
    15     6    37    1
    16     6    38    1
    17     7     8    1
    18     7    39    1
    19     7    40    1
    20     8     9   am
    21     8    27    1
    22     9    10    2
    23     9    11   am
    24    11    12    1
    25    11    41    1
    26    12    13    1
    27    12    42    1
    28    12    43    1
    29    13    14    1
    30    13    44    1
    31    13    45    1
    32    14    15    1
    33    14    46    1
    34    14    47    1
    35    15    26    1
    36    15    16    1
    37    16    17    1
    38    16    48    1
    39    16    49    1
    40    17    18    1
    41    17    50    1
    42    17    51    1
    43    18    19    1
    44    18    25    1
    45    19    24   ar
    46    19    20   ar
    47    20    21   ar
    48    21    22   ar
    49    21    52    1
    50    22    23   ar
    51    22    53    1
    52    23    24   ar
    53    23    54    1
    54    25    26    1
    55    25    55    1
    56    25    56    1
    57    26    57    1
    58    26    58    1
    59    27    28    1
    60    27    59    1
    61    27    60    1
    62    28    29    2
@<TRIPOS>SUBSTRUCTURE
     1 ZINC000508765459        1 TEMP              0 ****  ****    0 ROOT


##########                                Name:    ZINC000062291520
##########                DOCK_Rotatable_Bonds:                  10
##########                         Heavy_Atoms:                  29
##########                    Molecular_Weight:             398.502
##########                DOCK_Rotatable_Bonds:                  10
##########                       Formal_Charge:          -0.0100006
##########                     HBond_Acceptors:                   6
##########                        HBond_Donors:                   1
##########                         Heavy_Atoms:                  29
##########                          Grid_Score:          -37.834877
##########                     Grid_vdw_energy:          -36.829514
##########                      Grid_es_energy:           -1.005365
##########           Internal_energy_repulsive:           15.698246

@<TRIPOS>MOLECULE
ZINC000062291520
 59 61 1 0 0
SMALL
USER_CHARGES


@<TRIPOS>ATOM
      1 C1         -7.6935   -0.8898   59.8420 C.3     1  ZINC000062291520    0.0300
      2 O2         -7.1676    0.1036   58.9594 O.3     1  ZINC000062291520   -0.3100
      3 C3         -7.1029    1.3772   59.4319 C.ar    1  ZINC000062291520    0.1000
      4 C4         -7.6274    1.6833   60.6769 C.ar    1  ZINC000062291520   -0.1700
      5 C5         -7.5658    2.9800   61.1533 C.ar    1  ZINC000062291520   -0.1200
      6 C6         -6.9764    3.9719   60.3923 C.ar    1  ZINC000062291520   -0.1200
      7 C7         -6.4453    3.6717   59.1513 C.ar    1  ZINC000062291520   -0.1700
      8 C8         -6.5038    2.3748   58.6681 C.ar    1  ZINC000062291520    0.1000
      9 O9         -5.9819    2.0780   57.4478 O.3     1  ZINC000062291520   -0.3100
     10 C10        -5.2980    3.1285   56.7617 C.3     1  ZINC000062291520    0.0700
     11 C11        -4.8534    2.6332   55.3841 C.3     1  ZINC000062291520   -0.1400
     12 C12        -4.1264    3.7390   54.6632 C.2     1  ZINC000062291520    0.5200
     13 O13        -4.3204    4.8953   54.9736 O.2     1  ZINC000062291520   -0.5400
     14 N14        -3.2609    3.4430   53.6734 N.am    1  ZINC000062291520   -0.7200
     15 C15        -2.5528    4.5179   52.9738 C.3     1  ZINC000062291520    0.1600
     16 C16        -1.6382    3.9233   51.9340 C.ar    1  ZINC000062291520   -0.1100
     17 C17        -0.3321    3.6107   52.2601 C.ar    1  ZINC000062291520   -0.1000
     18 C18         0.5068    3.0647   51.3063 C.ar    1  ZINC000062291520   -0.1200
     19 C19         0.0393    2.8318   50.0266 C.ar    1  ZINC000062291520   -0.0900
     20 C20        -1.2672    3.1451   49.7003 C.ar    1  ZINC000062291520   -0.0800
     21 C21        -1.7768    2.8914   48.3050 C.3     1  ZINC000062291520    0.0900
     22 N22        -1.1503    1.6761   47.7681 N.3     1  ZINC000062291520   -0.5300
     23 C23        -1.7343    0.4706   48.3741 C.3     1  ZINC000062291520    0.0100
     24 C24        -1.0134   -0.7666   47.8322 C.3     1  ZINC000062291520    0.0600
     25 O25        -1.1057   -0.7790   46.4052 O.3     1  ZINC000062291520   -0.3800
     26 C26        -0.5459    0.3801   45.7819 C.3     1  ZINC000062291520    0.0900
     27 H27         0.5162    0.4434   46.0184 H       1  ZINC000062291520    0.0700
     28 C28        -0.7268    0.2826   44.2658 C.3     1  ZINC000062291520   -0.1500
     29 C29        -1.2619    1.6290   46.3030 C.3     1  ZINC000062291520    0.0200
     30 C30        -2.1075    3.6854   50.6555 C.ar    1  ZINC000062291520   -0.0900
     31 H31        -7.0771   -0.9412   60.7396 H       1  ZINC000062291520    0.0500
     32 H32        -8.7149   -0.6272   60.1173 H       1  ZINC000062291520    0.0600
     33 H33        -7.6894   -1.8585   59.3424 H       1  ZINC000062291520    0.1000
     34 H34        -8.0885    0.9102   61.2735 H       1  ZINC000062291520    0.1400
     35 H35        -7.9788    3.2182   62.1224 H       1  ZINC000062291520    0.1300
     36 H36        -6.9302    4.9834   60.7677 H       1  ZINC000062291520    0.1300
     37 H37        -5.9847    4.4484   58.5588 H       1  ZINC000062291520    0.1400
     38 H38        -4.4239    3.4305   57.3387 H       1  ZINC000062291520    0.0700
     39 H39        -5.9671    3.9808   56.6429 H       1  ZINC000062291520    0.0700
     40 H40        -5.7279    2.3356   54.8054 H       1  ZINC000062291520    0.1100
     41 H41        -4.1881    1.7780   55.5028 H       1  ZINC000062291520    0.1100
     42 H42        -3.1067    2.5183   53.4243 H       1  ZINC000062291520    0.4000
     43 H43        -3.2759    5.1740   52.4892 H       1  ZINC000062291520    0.0800
     44 H44        -1.9644    5.0916   53.6899 H       1  ZINC000062291520    0.0800
     45 H45         0.0331    3.7923   53.2601 H       1  ZINC000062291520    0.1200
     46 H46         1.5274    2.8200   51.5612 H       1  ZINC000062291520    0.1300
     47 H47         0.6947    2.4054   49.2816 H       1  ZINC000062291520    0.1200
     48 H48        -2.8587    2.7612   48.3316 H       1  ZINC000062291520    0.0500
     49 H49        -1.5286    3.7402   47.6677 H       1  ZINC000062291520    0.0900
     50 H50        -1.6177    0.5146   49.4570 H       1  ZINC000062291520    0.0900
     51 H51        -2.7936    0.4141   48.1240 H       1  ZINC000062291520    0.0400
     52 H52         0.0350   -0.7363   48.1290 H       1  ZINC000062291520    0.0600
     53 H53        -1.4805   -1.6654   48.2350 H       1  ZINC000062291520    0.1000
     54 H54        -1.7891    0.2209   44.0298 H       1  ZINC000062291520    0.0600
     55 H55        -0.3000    1.1663   43.7914 H       1  ZINC000062291520    0.0700
     56 H56        -0.2200   -0.6088   43.8960 H       1  ZINC000062291520    0.0700
     57 H57        -2.3136    1.5906   46.0191 H       1  ZINC000062291520    0.0400
     58 H58        -0.8007    2.5185   45.8741 H       1  ZINC000062291520    0.0900
     59 H59        -3.1294    3.9257   50.4018 H       1  ZINC000062291520    0.1200
@<TRIPOS>BOND
     1     1     2    1
     2     1    31    1
     3     1    32    1
     4     1    33    1
     5     2     3    1
     6     3     8   ar
     7     3     4   ar
     8     4     5   ar
     9     4    34    1
    10     5     6   ar
    11     5    35    1
    12     6     7   ar
    13     6    36    1
    14     7     8   ar
    15     7    37    1
    16     8     9    1
    17     9    10    1
    18    10    11    1
    19    10    38    1
    20    10    39    1
    21    11    12    1
    22    11    40    1
    23    11    41    1
    24    12    13    2
    25    12    14   am
    26    14    15    1
    27    14    42    1
    28    15    16    1
    29    15    43    1
    30    15    44    1
    31    16    30   ar
    32    16    17   ar
    33    17    18   ar
    34    17    45    1
    35    18    19   ar
    36    18    46    1
    37    19    20   ar
    38    19    47    1
    39    20    21    1
    40    20    30   ar
    41    21    22    1
    42    21    48    1
    43    21    49    1
    44    22    29    1
    45    22    23    1
    46    23    24    1
    47    23    50    1
    48    23    51    1
    49    24    25    1
    50    24    52    1
    51    24    53    1
    52    25    26    1
    53    26    27    1
    54    26    28    1
    55    26    29    1
    56    28    54    1
    57    28    55    1
    58    28    56    1
    59    29    57    1
    60    29    58    1
    61    30    59    1
@<TRIPOS>SUBSTRUCTURE
     1 ZINC000062291520        1 TEMP              0 ****  ****    0 ROOT


##########                                Name:    ZINC000011620562
##########                DOCK_Rotatable_Bonds:                   9
##########                         Heavy_Atoms:                  29
##########                    Molecular_Weight:             417.448
##########                DOCK_Rotatable_Bonds:                   9
##########                       Formal_Charge:           0.0299999
##########                     HBond_Acceptors:                  12
##########                        HBond_Donors:                   1
##########                         Heavy_Atoms:                  29
##########                          Grid_Score:          -37.250843
##########                     Grid_vdw_energy:          -34.093769
##########                      Grid_es_energy:           -3.157074
##########           Internal_energy_repulsive:            7.375505

@<TRIPOS>MOLECULE
ZINC000011620562
 48 50 1 0 0
SMALL
USER_CHARGES


@<TRIPOS>ATOM
      1 C1        -15.8659    0.3297   65.3631 C.3     1  ZINC000011620562    0.0400
      2 O2        -14.7635    0.0361   64.4649 O.3     1  ZINC000011620562   -0.3500
      3 C3        -15.0232    0.0745   63.1485 C.2     1  ZINC000011620562    0.4600
      4 O4        -16.1331    0.3509   62.7594 O.2     1  ZINC000011620562   -0.5000
      5 C5        -13.9302   -0.2270   62.1558 C.3     1  ZINC000011620562    0.1300
      6 N6        -14.4972   -0.9346   61.0051 N.am    1  ZINC000011620562   -0.7200
      7 C7        -14.8936   -2.2166   61.1308 C.2     1  ZINC000011620562    0.5400
      8 O8        -14.7823   -2.7840   62.1969 O.2     1  ZINC000011620562   -0.5200
      9 C9        -15.4752   -2.9450   59.9466 C.3     1  ZINC000011620562   -0.1600
     10 S10       -14.7388   -2.3036   58.4227 S.3     1  ZINC000011620562    0.1400
     11 C11       -13.7320   -3.6763   57.9681 C.2     1  ZINC000011620562    0.2100
     12 N12       -14.1535   -4.8624   57.5843 N.2     1  ZINC000011620562   -0.3400
     13 N13       -13.1581   -5.6313   57.3257 N.2     1  ZINC000011620562   -0.0300
     14 N14       -12.0468   -5.0080   57.5206 N.2     1  ZINC000011620562   -0.0800
     15 N15       -12.3772   -3.7080   57.9418 N.pl3   1  ZINC000011620562   -0.2600
     16 C16       -11.4907   -2.6650   58.2725 C.2     1  ZINC000011620562   -0.1300
     17 C17       -10.9176   -1.8027   57.4026 C.2     1  ZINC000011620562    0.2500
     18 C18       -11.1181   -1.7931   55.9091 C.3     1  ZINC000011620562   -0.1100
     19 N19       -10.1244   -0.9401   58.1101 N.pl3   1  ZINC000011620562   -0.3700
     20 C20        -9.3255    0.1505   57.5457 C.3     1  ZINC000011620562    0.0900
     21 N21       -10.2085   -1.2792   59.4667 N.am    1  ZINC000011620562   -0.3600
     22 C22        -9.5462   -0.6388   60.5187 C.ar    1  ZINC000011620562    0.1400
     23 C23        -8.5105   -1.2826   61.1838 C.ar    1  ZINC000011620562   -0.1300
     24 C24        -7.8581   -0.6471   62.2219 C.ar    1  ZINC000011620562   -0.1000
     25 C25        -8.2348    0.6287   62.5995 C.ar    1  ZINC000011620562   -0.1100
     26 C26        -9.2656    1.2724   61.9397 C.ar    1  ZINC000011620562   -0.1000
     27 C27        -9.9184    0.6447   60.8970 C.ar    1  ZINC000011620562   -0.1000
     28 C28       -11.0464   -2.3300   59.5778 C.2     1  ZINC000011620562    0.5500
     29 O29       -11.3593   -2.8941   60.6106 O.2     1  ZINC000011620562   -0.5000
     30 H30       -16.6680   -0.3905   65.2015 H       1  ZINC000011620562    0.0700
     31 H31       -15.5212    0.2642   66.3950 H       1  ZINC000011620562    0.1100
     32 H32       -16.2362    1.3360   65.1669 H       1  ZINC000011620562    0.0700
     33 H33       -13.4759    0.7056   61.8210 H       1  ZINC000011620562    0.1200
     34 H34       -13.1719   -0.8513   62.6286 H       1  ZINC000011620562    0.1200
     35 H35       -14.5874   -0.4804   60.1528 H       1  ZINC000011620562    0.4200
     36 H36       -15.2602   -4.0101   60.0338 H       1  ZINC000011620562    0.1400
     37 H37       -16.5542   -2.7931   59.9208 H       1  ZINC000011620562    0.1400
     38 H38       -11.8018   -2.5945   55.6290 H       1  ZINC000011620562    0.1000
     39 H39       -11.5381   -0.8344   55.6050 H       1  ZINC000011620562    0.1000
     40 H40       -10.1593   -1.9435   55.4129 H       1  ZINC000011620562    0.1000
     41 H41        -9.4290    0.1528   56.4606 H       1  ZINC000011620562    0.1100
     42 H42        -9.6754    1.1021   57.9460 H       1  ZINC000011620562    0.0900
     43 H43        -8.2778    0.0081   57.8105 H       1  ZINC000011620562    0.0900
     44 H44        -8.2162   -2.2793   60.8896 H       1  ZINC000011620562    0.1300
     45 H45        -7.0530   -1.1474   62.7397 H       1  ZINC000011620562    0.1300
     46 H46        -7.7228    1.1234   63.4116 H       1  ZINC000011620562    0.1300
     47 H47        -9.5577    2.2685   62.2375 H       1  ZINC000011620562    0.1400
     48 H48       -10.7232    1.1481   60.3819 H       1  ZINC000011620562    0.1400
@<TRIPOS>BOND
     1     1     2    1
     2     1    30    1
     3     1    31    1
     4     1    32    1
     5     2     3    1
     6     3     4    2
     7     3     5    1
     8     5     6    1
     9     5    33    1
    10     5    34    1
    11     6     7   am
    12     6    35    1
    13     7     8    2
    14     7     9    1
    15     9    10    1
    16     9    36    1
    17     9    37    1
    18    10    11    1
    19    11    15    1
    20    11    12    2
    21    12    13    1
    22    13    14    2
    23    14    15    1
    24    15    16    1
    25    16    28    1
    26    16    17    2
    27    17    18    1
    28    17    19    1
    29    18    38    1
    30    18    39    1
    31    18    40    1
    32    19    20    1
    33    19    21    1
    34    20    41    1
    35    20    42    1
    36    20    43    1
    37    21    22    1
    38    21    28   am
    39    22    27   ar
    40    22    23   ar
    41    23    24   ar
    42    23    44    1
    43    24    25   ar
    44    24    45    1
    45    25    26   ar
    46    25    46    1
    47    26    27   ar
    48    26    47    1
    49    27    48    1
    50    28    29    2
@<TRIPOS>SUBSTRUCTURE
     1 ZINC000011620562        1 TEMP              0 ****  ****    0 ROOT


##########                                Name:    ZINC000482846390
##########                DOCK_Rotatable_Bonds:                   9
##########                         Heavy_Atoms:                  30
##########                    Molecular_Weight:             420.469
##########                DOCK_Rotatable_Bonds:                   9
##########                       Formal_Charge:          -0.0100011
##########                     HBond_Acceptors:                  11
##########                        HBond_Donors:                   2
##########                         Heavy_Atoms:                  30
##########                          Grid_Score:          -37.237961
##########                     Grid_vdw_energy:          -35.779396
##########                      Grid_es_energy:           -1.458565
##########           Internal_energy_repulsive:           20.901556

@<TRIPOS>MOLECULE
ZINC000482846390
 58 60 1 0 0
SMALL
USER_CHARGES


@<TRIPOS>ATOM
      1 C1         -9.3209    0.6224   56.7158 C.3     1  ZINC000482846390   -0.1000
      2 C2         -7.9769    1.2528   56.9752 C.2     1  ZINC000482846390    0.0900
      3 C3         -7.3487    2.1486   56.1790 C.2     1  ZINC000482846390   -0.2700
      4 C4         -6.1306    2.4800   56.7812 C.2     1  ZINC000482846390    0.0700
      5 C5         -5.1098    3.4458   56.2371 C.3     1  ZINC000482846390   -0.0500
      6 C6         -4.2462    2.7392   55.1903 C.3     1  ZINC000482846390    0.1500
      7 H7         -4.8739    2.0905   54.5793 H       1  ZINC000482846390    0.1000
      8 C8         -3.1775    1.8997   55.8932 C.3     1  ZINC000482846390   -0.1700
      9 N9         -3.5990    3.7380   54.3361 N.am    1  ZINC000482846390   -0.6800
     10 C10        -4.2191    4.1758   53.2224 C.2     1  ZINC000482846390    0.5100
     11 O11        -5.3141    3.7437   52.9281 O.2     1  ZINC000482846390   -0.5200
     12 C12        -3.5580    5.1935   52.3502 C.2     1  ZINC000482846390    0.5100
     13 O13        -3.6092    6.3698   52.6441 O.2     1  ZINC000482846390   -0.5100
     14 N14        -2.9048    4.8049   51.2372 N.am    1  ZINC000482846390   -0.5900
     15 C15        -2.2449    5.7941   50.3735 C.3     1  ZINC000482846390    0.0500
     16 C16        -0.7723    5.3977   50.2106 C.3     1  ZINC000482846390    0.1000
     17 N17        -0.7066    3.9773   49.8392 N.am    1  ZINC000482846390   -0.6000
     18 C18        -0.0526    3.5886   48.7267 C.2     1  ZINC000482846390    0.5200
     19 O19         0.4888    4.4145   48.0214 O.2     1  ZINC000482846390   -0.5000
     20 C20         0.0059    2.1406   48.3616 C.2     1  ZINC000482846390    0.5200
     21 O21         0.8707    1.4308   48.8316 O.2     1  ZINC000482846390   -0.5000
     22 N22        -0.9018    1.6230   47.5103 N.am    1  ZINC000482846390   -0.6000
     23 C23        -1.9559    2.4653   46.9230 C.3     1  ZINC000482846390    0.0700
     24 C24        -1.9562    2.2511   45.4051 C.3     1  ZINC000482846390    0.0500
     25 O25        -2.0340    0.8508   45.1274 O.3     1  ZINC000482846390   -0.3700
     26 C26        -0.9212    0.0953   45.6119 C.3     1  ZINC000482846390    0.0500
     27 C27        -0.8644    0.2005   47.1360 C.3     1  ZINC000482846390    0.0700
     28 C28        -1.3665    2.9880   50.7030 C.3     1  ZINC000482846390    0.0900
     29 C29        -2.8343    3.3839   50.8687 C.3     1  ZINC000482846390    0.0900
     30 N30        -6.0309    1.8073   57.8989 N.2     1  ZINC000482846390   -0.2800
     31 N31        -7.1867    1.0294   58.0461 N.pl3   1  ZINC000482846390   -0.4700
     32 H32       -10.1034    1.2425   57.1531 H       1  ZINC000482846390    0.0800
     33 H33        -9.4816    0.5388   55.6409 H       1  ZINC000482846390    0.0900
     34 H34        -9.3497   -0.3699   57.1658 H       1  ZINC000482846390    0.0700
     35 H35        -7.7220    2.5385   55.2435 H       1  ZINC000482846390    0.1500
     36 H36        -5.6195    4.2920   55.7764 H       1  ZINC000482846390    0.0900
     37 H37        -4.4769    3.8017   57.0500 H       1  ZINC000482846390    0.1100
     38 H38        -3.6590    1.1565   56.5286 H       1  ZINC000482846390    0.0700
     39 H39        -2.5623    1.3963   55.1474 H       1  ZINC000482846390    0.0700
     40 H40        -2.5497    2.5483   56.5042 H       1  ZINC000482846390    0.0600
     41 H41        -2.7242    4.0843   54.5721 H       1  ZINC000482846390    0.4200
     42 H42        -2.7298    5.8088   49.3974 H       1  ZINC000482846390    0.0800
     43 H43        -2.3096    6.7810   50.8317 H       1  ZINC000482846390    0.1600
     44 H44        -0.3152    6.0021   49.4271 H       1  ZINC000482846390    0.1100
     45 H45        -0.2450    5.5545   51.1516 H       1  ZINC000482846390    0.0800
     46 H46        -2.9245    2.1810   47.3341 H       1  ZINC000482846390    0.0900
     47 H47        -1.7553    3.5132   47.1458 H       1  ZINC000482846390    0.0900
     48 H48        -2.8157    2.7575   44.9661 H       1  ZINC000482846390    0.1100
     49 H49        -1.0379    2.6560   44.9800 H       1  ZINC000482846390    0.0600
     50 H50        -1.0361   -0.9490   45.3217 H       1  ZINC000482846390    0.1100
     51 H51         0.0010    0.4925   45.1876 H       1  ZINC000482846390    0.0600
     52 H52         0.0572   -0.2528   47.5012 H       1  ZINC000482846390    0.1100
     53 H53        -1.7230   -0.3108   47.5714 H       1  ZINC000482846390    0.0800
     54 H54        -1.3018    2.0012   50.2446 H       1  ZINC000482846390    0.0900
     55 H55        -0.8815    2.9733   51.6790 H       1  ZINC000482846390    0.0900
     56 H56        -3.2902    2.7787   51.6525 H       1  ZINC000482846390    0.1100
     57 H57        -3.3636    3.2285   49.9286 H       1  ZINC000482846390    0.0800
     58 H58        -7.3817    0.4312   58.7844 H       1  ZINC000482846390    0.4400
@<TRIPOS>BOND
     1     1     2    1
     2     1    32    1
     3     1    33    1
     4     1    34    1
     5     2    31    1
     6     2     3    2
     7     3     4    1
     8     3    35    1
     9     4     5    1
    10     4    30    2
    11     5     6    1
    12     5    36    1
    13     5    37    1
    14     6     7    1
    15     6     8    1
    16     6     9    1
    17     8    38    1
    18     8    39    1
    19     8    40    1
    20     9    10   am
    21     9    41    1
    22    10    11    2
    23    10    12    1
    24    12    13    2
    25    12    14   am
    26    14    29    1
    27    14    15    1
    28    15    16    1
    29    15    42    1
    30    15    43    1
    31    16    17    1
    32    16    44    1
    33    16    45    1
    34    17    18   am
    35    17    28    1
    36    18    19    2
    37    18    20    1
    38    20    21    2
    39    20    22   am
    40    22    27    1
    41    22    23    1
    42    23    24    1
    43    23    46    1
    44    23    47    1
    45    24    25    1
    46    24    48    1
    47    24    49    1
    48    25    26    1
    49    26    27    1
    50    26    50    1
    51    26    51    1
    52    27    52    1
    53    27    53    1
    54    28    29    1
    55    28    54    1
    56    28    55    1
    57    29    56    1
    58    29    57    1
    59    30    31    1
    60    31    58    1
@<TRIPOS>SUBSTRUCTURE
     1 ZINC000482846390        1 TEMP              0 ****  ****    0 ROOT


##########                                Name:    ZINC001573443776
##########                DOCK_Rotatable_Bonds:                   8
##########                         Heavy_Atoms:                  28
##########                    Molecular_Weight:             386.457
##########                DOCK_Rotatable_Bonds:                   8
##########                       Formal_Charge:          0.00999954
##########                     HBond_Acceptors:                  10
##########                        HBond_Donors:                   3
##########                         Heavy_Atoms:                  28
##########                          Grid_Score:          -37.005943
##########                     Grid_vdw_energy:          -34.618191
##########                      Grid_es_energy:           -2.387753
##########           Internal_energy_repulsive:           39.895779

@<TRIPOS>MOLECULE
ZINC001573443776
 54 56 1 0 0
SMALL
USER_CHARGES


@<TRIPOS>ATOM
      1 C1         -7.0237    1.7916   57.4650 C.3     1  ZINC001573443776   -0.1800
      2 C2         -6.8733    2.4564   56.1210 C.2     1  ZINC001573443776    0.5100
      3 O3         -7.8464    2.9092   55.5561 O.2     1  ZINC001573443776   -0.5400
      4 N4         -5.6574    2.5478   55.5467 N.am    1  ZINC001573443776   -0.6100
      5 C5         -4.4694    2.0040   56.2188 C.3     1  ZINC001573443776    0.1100
      6 C6         -3.4084    3.1051   56.3121 C.3     1  ZINC001573443776   -0.1300
      7 C7         -3.1379    3.6671   54.9146 C.3     1  ZINC001573443776   -0.1000
      8 C8         -4.4223    4.2805   54.3522 C.3     1  ZINC001573443776   -0.1200
      9 H9         -4.7727    5.0673   55.0202 H       1  ZINC001573443776    0.1000
     10 C10        -4.1470    4.8630   52.9898 C.2     1  ZINC001573443776    0.5200
     11 O11        -4.7063    5.8810   52.6413 O.2     1  ZINC001573443776   -0.5300
     12 N12        -3.2791    4.2524   52.1588 N.am    1  ZINC001573443776   -0.7300
     13 C13        -3.0102    4.8196   50.8352 C.3     1  ZINC001573443776    0.1100
     14 C14        -1.6816    4.2745   50.3071 C.3     1  ZINC001573443776    0.1400
     15 H15        -1.4085    4.8044   49.3946 H       1  ZINC001573443776    0.0900
     16 C16        -0.5915    4.4788   51.3611 C.3     1  ZINC001573443776   -0.1700
     17 N17        -1.8203    2.8449   50.0188 N.pl3   1  ZINC001573443776   -0.7200
     18 C18        -1.4905    2.3547   48.7615 C.ar    1  ZINC001573443776    0.4300
     19 C19        -1.1992    1.0025   48.6060 C.ar    1  ZINC001573443776   -0.2500
     20 C20        -0.8727    0.5230   47.3527 C.ar    1  ZINC001573443776    0.0100
     21 C21        -0.8476    1.4227   46.2817 C.ar    1  ZINC001573443776   -0.1400
     22 C22        -0.5031    0.9564   44.9154 C.2     1  ZINC001573443776    0.2400
     23 N23         0.6921    0.9630   44.3591 N.2     1  ZINC001573443776   -0.3000
     24 N24         0.5766    0.4791   43.1704 N.pl3   1  ZINC001573443776   -0.2300
     25 N25        -0.6536    0.1660   42.9557 N.2     1  ZINC001573443776   -0.0500
     26 N26        -1.3456    0.4409   44.0089 N.2     1  ZINC001573443776   -0.2700
     27 C27        -1.1506    2.7608   46.5147 C.ar    1  ZINC001573443776    0.2300
     28 C28        -1.1274    3.7408   45.3701 C.3     1  ZINC001573443776   -0.1200
     29 N29        -1.4624    3.1790   47.7249 N.ar    1  ZINC001573443776   -0.5400
     30 C30        -5.4956    3.1877   54.2341 C.3     1  ZINC001573443776    0.1200
     31 H31        -7.2931    0.7448   57.3244 H       1  ZINC001573443776    0.0900
     32 H32        -6.0814    1.8543   58.0090 H       1  ZINC001573443776    0.0800
     33 H33        -7.8057    2.2947   58.0336 H       1  ZINC001573443776    0.1000
     34 H34        -4.7376    1.6692   57.2208 H       1  ZINC001573443776    0.1000
     35 H35        -4.0761    1.1654   55.6441 H       1  ZINC001573443776    0.0700
     36 H36        -3.7682    3.9030   56.9618 H       1  ZINC001573443776    0.0700
     37 H37        -2.4877    2.6894   56.7215 H       1  ZINC001573443776    0.0800
     38 H38        -2.3655    4.4338   54.9747 H       1  ZINC001573443776    0.0800
     39 H39        -2.8017    2.8639   54.2590 H       1  ZINC001573443776    0.0700
     40 H40        -2.8326    3.4376   52.4371 H       1  ZINC001573443776    0.4000
     41 H41        -3.8133    4.5441   50.1517 H       1  ZINC001573443776    0.0900
     42 H42        -2.9533    5.9056   50.9099 H       1  ZINC001573443776    0.0800
     43 H43        -0.4883    5.5425   51.5757 H       1  ZINC001573443776    0.0700
     44 H44        -0.8646    3.9489   52.2737 H       1  ZINC001573443776    0.0700
     45 H45         0.3550    4.0906   50.9849 H       1  ZINC001573443776    0.0700
     46 H46        -2.1426    2.2406   50.7057 H       1  ZINC001573443776    0.4100
     47 H47        -1.2279    0.3362   49.4555 H       1  ZINC001573443776    0.1400
     48 H48        -0.6419   -0.5214   47.2031 H       1  ZINC001573443776    0.1400
     49 H49         1.3025    0.3683   42.5366 H       1  ZINC001573443776    0.4800
     50 H50        -2.1142    3.7847   44.9092 H       1  ZINC001573443776    0.0800
     51 H51        -0.8564    4.7285   45.7430 H       1  ZINC001573443776    0.0800
     52 H52        -0.3949    3.4182   44.6303 H       1  ZINC001573443776    0.1100
     53 H53        -5.1842    2.4477   53.4968 H       1  ZINC001573443776    0.0800
     54 H54        -6.4411    3.6356   53.9283 H       1  ZINC001573443776    0.0900
@<TRIPOS>BOND
     1     1     2    1
     2     1    31    1
     3     1    32    1
     4     1    33    1
     5     2     3    2
     6     2     4   am
     7     4    30    1
     8     4     5    1
     9     5     6    1
    10     5    34    1
    11     5    35    1
    12     6     7    1
    13     6    36    1
    14     6    37    1
    15     7     8    1
    16     7    38    1
    17     7    39    1
    18     8     9    1
    19     8    10    1
    20     8    30    1
    21    10    11    2
    22    10    12   am
    23    12    13    1
    24    12    40    1
    25    13    14    1
    26    13    41    1
    27    13    42    1
    28    14    15    1
    29    14    16    1
    30    14    17    1
    31    16    43    1
    32    16    44    1
    33    16    45    1
    34    17    18    1
    35    17    46    1
    36    18    29   ar
    37    18    19   ar
    38    19    20   ar
    39    19    47    1
    40    20    21   ar
    41    20    48    1
    42    21    22    1
    43    21    27   ar
    44    22    26    1
    45    22    23    2
    46    23    24    1
    47    24    25    1
    48    24    49    1
    49    25    26    2
    50    27    28    1
    51    27    29   ar
    52    28    50    1
    53    28    51    1
    54    28    52    1
    55    30    53    1
    56    30    54    1
@<TRIPOS>SUBSTRUCTURE
     1 ZINC001573443776        1 TEMP              0 ****  ****    0 ROOT


##########                                Name:    ZINC000110375116
##########                DOCK_Rotatable_Bonds:                  10
##########                         Heavy_Atoms:                  27
##########                    Molecular_Weight:             396.511
##########                DOCK_Rotatable_Bonds:                  10
##########                       Formal_Charge:        -2.23517e-07
##########                     HBond_Acceptors:                   9
##########                        HBond_Donors:                   0
##########                         Heavy_Atoms:                  27
##########                          Grid_Score:          -36.957680
##########                     Grid_vdw_energy:          -35.249931
##########                      Grid_es_energy:           -1.707747
##########           Internal_energy_repulsive:           31.929070

@<TRIPOS>MOLECULE
ZINC000110375116
 55 56 1 0 0
SMALL
USER_CHARGES


@<TRIPOS>ATOM
      1 C1         -0.9633    3.7300   54.7366 C.3     1  ZINC000110375116   -0.1700
      2 C2         -2.3627    4.0840   55.2439 C.3     1  ZINC000110375116    0.1000
      3 N3         -3.2561    4.2982   54.1028 N.am    1  ZINC000110375116   -0.6200
      4 C4         -4.0215    3.1775   53.5512 C.3     1  ZINC000110375116    0.1100
      5 C5         -5.4325    3.1833   54.1427 C.3     1  ZINC000110375116   -0.1700
      6 C6         -3.3739    5.5264   53.5604 C.2     1  ZINC000110375116    0.5100
      7 O7         -2.7391    6.4540   54.0160 O.2     1  ZINC000110375116   -0.5300
      8 C8         -4.2942    5.7471   52.3876 C.3     1  ZINC000110375116   -0.1400
      9 C9         -3.4637    6.0196   51.1318 C.3     1  ZINC000110375116   -0.0900
     10 C10        -2.9266    4.6979   50.5790 C.3     1  ZINC000110375116   -0.1400
     11 C11        -2.0293    4.9741   49.4003 C.2     1  ZINC000110375116    0.5200
     12 O12        -1.7844    6.1178   49.0794 O.2     1  ZINC000110375116   -0.5300
     13 N13        -1.4989    3.9502   48.7025 N.am    1  ZINC000110375116   -0.6200
     14 C14        -1.7904    2.5593   49.0771 C.3     1  ZINC000110375116    0.0900
     15 C15        -2.3600    1.8313   47.8533 C.3     1  ZINC000110375116    0.1000
     16 N16        -1.4802    2.0857   46.7040 N.am    1  ZINC000110375116   -1.0000
     17 S17        -0.8293    0.8276   45.8461 S.o2    1  ZINC000110375116    2.7000
     18 O18        -1.9178   -0.0005   45.4602 O.2     1  ZINC000110375116   -0.9400
     19 O19         0.0775    1.4030   44.9157 O.2     1  ZINC000110375116   -0.9500
     20 C20         0.1438   -0.1206   46.9680 C.ar    1  ZINC000110375116   -0.7400
     21 C21        -0.4153   -1.1885   47.6527 C.ar    1  ZINC000110375116    0.0200
     22 C22         0.3884   -1.9067   48.5252 C.ar    1  ZINC000110375116   -0.1900
     23 C23         1.7106   -1.5368   48.6818 C.ar    1  ZINC000110375116    0.1500
     24 N24         2.2089   -0.5148   48.0137 N.ar    1  ZINC000110375116   -0.4900
     25 C25         1.4758    0.1873   47.1721 C.ar    1  ZINC000110375116    0.2000
     26 C26        -1.1886    3.4765   46.3294 C.3     1  ZINC000110375116    0.1000
     27 C27        -0.6235    4.2046   47.5497 C.3     1  ZINC000110375116    0.1000
     28 H28        -0.2986    3.5706   55.5856 H       1  ZINC000110375116    0.0700
     29 H29        -1.0131    2.8204   54.1382 H       1  ZINC000110375116    0.0600
     30 H30        -0.5813    4.5470   54.1245 H       1  ZINC000110375116    0.0600
     31 H31        -2.7447    3.2669   55.8560 H       1  ZINC000110375116    0.0800
     32 H32        -2.3129    4.9937   55.8422 H       1  ZINC000110375116    0.0800
     33 H33        -4.0815    3.2769   52.4674 H       1  ZINC000110375116    0.0800
     34 H34        -3.5257    2.2400   53.8030 H       1  ZINC000110375116    0.0800
     35 H35        -6.0020    2.3495   53.7323 H       1  ZINC000110375116    0.0700
     36 H36        -5.3726    3.0839   55.2264 H       1  ZINC000110375116    0.0500
     37 H37        -5.9282    4.1208   53.8907 H       1  ZINC000110375116    0.0600
     38 H38        -4.9055    4.8581   52.2331 H       1  ZINC000110375116    0.0900
     39 H39        -4.9402    6.6019   52.5886 H       1  ZINC000110375116    0.0900
     40 H40        -4.0893    6.5005   50.3798 H       1  ZINC000110375116    0.0800
     41 H41        -2.6293    6.6742   51.3831 H       1  ZINC000110375116    0.0800
     42 H42        -2.3595    4.1833   51.3546 H       1  ZINC000110375116    0.1000
     43 H43        -3.7602    4.0711   50.2620 H       1  ZINC000110375116    0.1000
     44 H44        -0.8731    2.0678   49.4011 H       1  ZINC000110375116    0.0800
     45 H45        -2.5218    2.5438   49.8852 H       1  ZINC000110375116    0.1000
     46 H46        -2.4023    0.7604   48.0517 H       1  ZINC000110375116    0.1100
     47 H47        -3.3607    2.2057   47.6379 H       1  ZINC000110375116    0.0800
     48 H48        -1.4523   -1.4545   47.5103 H       1  ZINC000110375116    0.1500
     49 H49        -0.0139   -2.7444   49.0754 H       1  ZINC000110375116    0.1500
     50 H50         2.3431   -2.0908   49.3597 H       1  ZINC000110375116    0.1700
     51 H51         1.9188    1.0178   46.6427 H       1  ZINC000110375116    0.1700
     52 H52        -0.4573    3.4921   45.5212 H       1  ZINC000110375116    0.1100
     53 H53        -2.1059    3.9681   46.0054 H       1  ZINC000110375116    0.0800
     54 H54        -0.5818    5.2754   47.3500 H       1  ZINC000110375116    0.1100
     55 H55         0.3771    3.8313   47.7676 H       1  ZINC000110375116    0.0800
@<TRIPOS>BOND
     1     1     2    1
     2     1    28    1
     3     1    29    1
     4     1    30    1
     5     2     3    1
     6     2    31    1
     7     2    32    1
     8     3     4    1
     9     3     6   am
    10     4     5    1
    11     4    33    1
    12     4    34    1
    13     5    35    1
    14     5    36    1
    15     5    37    1
    16     6     7    2
    17     6     8    1
    18     8     9    1
    19     8    38    1
    20     8    39    1
    21     9    10    1
    22     9    40    1
    23     9    41    1
    24    10    11    1
    25    10    42    1
    26    10    43    1
    27    11    12    2
    28    11    13   am
    29    13    27    1
    30    13    14    1
    31    14    15    1
    32    14    44    1
    33    14    45    1
    34    15    16    1
    35    15    46    1
    36    15    47    1
    37    16    17   am
    38    16    26    1
    39    17    18    2
    40    17    19    2
    41    17    20    1
    42    20    25   ar
    43    20    21   ar
    44    21    22   ar
    45    21    48    1
    46    22    23   ar
    47    22    49    1
    48    23    24   ar
    49    23    50    1
    50    24    25   ar
    51    25    51    1
    52    26    27    1
    53    26    52    1
    54    26    53    1
    55    27    54    1
    56    27    55    1
@<TRIPOS>SUBSTRUCTURE
     1 ZINC000110375116        1 TEMP              0 ****  ****    0 ROOT


##########                                Name:    ZINC000912668252
##########                DOCK_Rotatable_Bonds:                  10
##########                         Heavy_Atoms:                  30
##########                    Molecular_Weight:             411.433
##########                DOCK_Rotatable_Bonds:                  10
##########                       Formal_Charge:           0.0199993
##########                     HBond_Acceptors:                   8
##########                        HBond_Donors:                   2
##########                         Heavy_Atoms:                  30
##########                          Grid_Score:          -36.936615
##########                     Grid_vdw_energy:          -35.730637
##########                      Grid_es_energy:           -1.205980
##########           Internal_energy_repulsive:           19.752398

@<TRIPOS>MOLECULE
ZINC000912668252
 52 54 1 0 0
SMALL
USER_CHARGES


@<TRIPOS>ATOM
      1 C1         -9.7635   -0.6370   52.8470 C.3     1  ZINC000912668252   -0.1700
      2 C2         -8.9714    0.4019   53.6432 C.3     1  ZINC000912668252    0.1100
      3 N3         -9.8407    1.5359   53.9667 N.am    1  ZINC000912668252   -0.6100
      4 C4        -11.1979    1.5981   53.4190 C.3     1  ZINC000912668252    0.1000
      5 C5        -11.1689    2.3068   52.0633 C.3     1  ZINC000912668252   -0.1800
      6 C6         -9.3916    2.5220   54.7683 C.2     1  ZINC000912668252    0.5600
      7 O7        -10.1128    3.4629   55.0366 O.2     1  ZINC000912668252   -0.5300
      8 C8         -8.0217    2.4592   55.3211 C.ar    1  ZINC000912668252   -0.1100
      9 C9         -7.7843    1.8060   56.5316 C.ar    1  ZINC000912668252   -0.1100
     10 C10        -6.5045    1.7485   57.0452 C.ar    1  ZINC000912668252   -0.1000
     11 C11        -5.4547    2.3360   56.3647 C.ar    1  ZINC000912668252   -0.1200
     12 C12        -5.6807    2.9888   55.1586 C.ar    1  ZINC000912668252    0.1400
     13 N13        -4.6141    3.5817   54.4732 N.am    1  ZINC000912668252   -0.6700
     14 C14        -4.3593    3.2371   53.1954 C.2     1  ZINC000912668252    0.5200
     15 O15        -5.0542    2.4131   52.6394 O.2     1  ZINC000912668252   -0.4900
     16 C16        -3.2109    3.8755   52.4575 C.3     1  ZINC000912668252    0.0500
     17 O17        -3.1621    3.3617   51.1003 O.3     1  ZINC000912668252   -0.3300
     18 C18        -1.9417    3.2031   50.5493 C.2     1  ZINC000912668252    0.5400
     19 O19        -0.9633    3.6797   51.0914 O.2     1  ZINC000912668252   -0.4800
     20 C20        -1.7942    2.4546   49.2940 C.2     1  ZINC000912668252    0.0400
     21 C21        -1.7619    3.0010   48.0495 C.2     1  ZINC000912668252   -0.0900
     22 C22        -1.6079    1.9456   47.1190 C.ar    1  ZINC000912668252   -0.1000
     23 C23        -1.5136    1.9015   45.7218 C.ar    1  ZINC000912668252   -0.0900
     24 C24        -1.3663    0.6997   45.0884 C.ar    1  ZINC000912668252    0.0700
     25 F25        -1.2757    0.6595   43.7410 F       1  ZINC000912668252   -0.1400
     26 C26        -1.3084   -0.4824   45.8190 C.ar    1  ZINC000912668252   -0.1100
     27 C27        -1.3993   -0.4633   47.1929 C.ar    1  ZINC000912668252   -0.1000
     28 C28        -1.5498    0.7489   47.8602 C.ar    1  ZINC000912668252    0.1100
     29 N29        -1.6602    1.0832   49.1900 N.pl3   1  ZINC000912668252   -0.5600
     30 C30        -6.9613    3.0476   54.6318 C.ar    1  ZINC000912668252   -0.0700
     31 H31        -9.1168   -1.4808   52.6063 H       1  ZINC000912668252    0.0700
     32 H32       -10.6078   -0.9846   53.4424 H       1  ZINC000912668252    0.0600
     33 H33       -10.1304   -0.1859   51.9250 H       1  ZINC000912668252    0.0600
     34 H34        -8.6046   -0.0493   54.5652 H       1  ZINC000912668252    0.0800
     35 H35        -8.1271    0.7495   53.0478 H       1  ZINC000912668252    0.0900
     36 H36       -11.5853    0.5872   53.2922 H       1  ZINC000912668252    0.0900
     37 H37       -11.8412    2.1505   54.1040 H       1  ZINC000912668252    0.0800
     38 H38       -11.1601    3.3858   52.2176 H       1  ZINC000912668252    0.0600
     39 H39       -10.2731    2.0105   51.5175 H       1  ZINC000912668252    0.0700
     40 H40       -12.0528    2.0291   51.4891 H       1  ZINC000912668252    0.0700
     41 H41        -8.6020    1.3460   57.0664 H       1  ZINC000912668252    0.1400
     42 H42        -6.3228    1.2430   57.9821 H       1  ZINC000912668252    0.1400
     43 H43        -4.4555    2.2880   56.7717 H       1  ZINC000912668252    0.1300
     44 H44        -4.0583    4.2407   54.9179 H       1  ZINC000912668252    0.4200
     45 H45        -3.3513    4.9562   52.4320 H       1  ZINC000912668252    0.1100
     46 H46        -2.2765    3.6425   52.9681 H       1  ZINC000912668252    0.1100
     47 H47        -1.8404    4.0519   47.8132 H       1  ZINC000912668252    0.1700
     48 H48        -1.5577    2.8147   45.1470 H       1  ZINC000912668252    0.1400
     49 H49        -1.1914   -1.4243   45.3038 H       1  ZINC000912668252    0.1400
     50 H50        -1.3540   -1.3865   47.7513 H       1  ZINC000912668252    0.1400
     51 H51        -1.6478    0.4590   49.9323 H       1  ZINC000912668252    0.4300
     52 H52        -7.1389    3.5543   53.6947 H       1  ZINC000912668252    0.1400
@<TRIPOS>BOND
     1     1     2    1
     2     1    31    1
     3     1    32    1
     4     1    33    1
     5     2     3    1
     6     2    34    1
     7     2    35    1
     8     3     4    1
     9     3     6   am
    10     4     5    1
    11     4    36    1
    12     4    37    1
    13     5    38    1
    14     5    39    1
    15     5    40    1
    16     6     7    2
    17     6     8    1
    18     8    30   ar
    19     8     9   ar
    20     9    10   ar
    21     9    41    1
    22    10    11   ar
    23    10    42    1
    24    11    12   ar
    25    11    43    1
    26    12    13    1
    27    12    30   ar
    28    13    14   am
    29    13    44    1
    30    14    15    2
    31    14    16    1
    32    16    17    1
    33    16    45    1
    34    16    46    1
    35    17    18    1
    36    18    19    2
    37    18    20    1
    38    20    29    1
    39    20    21    2
    40    21    22    1
    41    21    47    1
    42    22    28   ar
    43    22    23   ar
    44    23    24   ar
    45    23    48    1
    46    24    25    1
    47    24    26   ar
    48    26    27   ar
    49    26    49    1
    50    27    28   ar
    51    27    50    1
    52    28    29    1
    53    29    51    1
    54    30    52    1
@<TRIPOS>SUBSTRUCTURE
     1 ZINC000912668252        1 TEMP              0 ****  ****    0 ROOT


##########                                Name:    ZINC000552360217
##########                DOCK_Rotatable_Bonds:                  13
##########                         Heavy_Atoms:                  27
##########                    Molecular_Weight:             401.484
##########                DOCK_Rotatable_Bonds:                  13
##########                       Formal_Charge:          -0.0100002
##########                     HBond_Acceptors:                  10
##########                        HBond_Donors:                   3
##########                         Heavy_Atoms:                  27
##########                          Grid_Score:          -36.851418
##########                     Grid_vdw_energy:          -35.374920
##########                      Grid_es_energy:           -1.476497
##########           Internal_energy_repulsive:           15.512868

@<TRIPOS>MOLECULE
ZINC000552360217
 54 54 1 0 0
SMALL
USER_CHARGES


@<TRIPOS>ATOM
      1 C1         -1.6409    2.7369   45.5122 C.3     1  ZINC000552360217    0.0800
      2 N2         -1.5797    1.3505   45.9816 N.am    1  ZINC000552360217   -1.0000
      3 C3         -1.4283    0.2571   45.0183 C.3     1  ZINC000552360217    0.0900
      4 S4         -1.6815    1.0192   47.6009 S.o2    1  ZINC000552360217    2.7000
      5 O5         -2.8644    1.6541   48.0667 O.2     1  ZINC000552360217   -0.9500
      6 O6         -1.4402   -0.3741   47.7414 O.2     1  ZINC000552360217   -0.9500
      7 C7         -0.3344    1.8392   48.3866 C.ar    1  ZINC000552360217   -0.6900
      8 C8          0.9218    1.8132   47.8078 C.ar    1  ZINC000552360217    0.0100
      9 C9          1.9851    2.4550   48.4181 C.ar    1  ZINC000552360217   -0.1400
     10 C10         1.7984    3.1254   49.6091 C.ar    1  ZINC000552360217   -0.0300
     11 C11         0.5333    3.1556   50.1984 C.ar    1  ZINC000552360217   -0.1600
     12 C12         0.3258    3.8726   51.4746 C.2     1  ZINC000552360217    0.5600
     13 O13         0.8164    4.9723   51.6407 O.2     1  ZINC000552360217   -0.5300
     14 N14        -0.4072    3.3069   52.4540 N.am    1  ZINC000552360217   -0.7100
     15 C15        -0.6143    4.0182   53.7179 C.3     1  ZINC000552360217    0.1000
     16 C16        -1.3309    3.1168   54.6900 C.2     1  ZINC000552360217    0.5100
     17 O17        -0.7776    2.1270   55.1202 O.2     1  ZINC000552360217   -0.5400
     18 N18        -2.5868    3.4104   55.0812 N.am    1  ZINC000552360217   -0.7200
     19 C19        -3.2828    2.5350   56.0275 C.3     1  ZINC000552360217    0.1400
     20 C20        -4.7679    2.9013   56.0634 C.3     1  ZINC000552360217    0.1000
     21 C21        -4.9415    4.2608   56.7434 C.3     1  ZINC000552360217   -0.1800
     22 C22        -5.3103    2.9726   54.6346 C.3     1  ZINC000552360217   -0.1800
     23 O23        -5.4861    1.9069   56.7965 O.3     1  ZINC000552360217   -0.3700
     24 C24        -6.8021    2.3073   57.1834 C.3     1  ZINC000552360217    0.0600
     25 C25        -7.5902    1.0831   57.6536 C.3     1  ZINC000552360217    0.0800
     26 O26        -6.9375    0.5018   58.7842 O.3     1  ZINC000552360217   -0.5700
     27 C27        -0.5359    2.5107   49.5751 C.ar    1  ZINC000552360217    0.0400
     28 H28        -2.6782    3.0089   45.3168 H       1  ZINC000552360217    0.0600
     29 H29        -1.2297    3.3975   46.2756 H       1  ZINC000552360217    0.0900
     30 H30        -1.0603    2.8360   44.5950 H       1  ZINC000552360217    0.0800
     31 H31        -1.3791    0.6661   44.0091 H       1  ZINC000552360217    0.0800
     32 H32        -0.5115   -0.2919   45.2329 H       1  ZINC000552360217    0.0700
     33 H33        -2.2818   -0.4164   45.0961 H       1  ZINC000552360217    0.0600
     34 H34         1.0734    1.2893   46.8755 H       1  ZINC000552360217    0.1500
     35 H35         2.9633    2.4305   47.9612 H       1  ZINC000552360217    0.1400
     36 H36         2.6291    3.6256   50.0845 H       1  ZINC000552360217    0.1400
     37 H37        -0.7977    2.4289   52.3220 H       1  ZINC000552360217    0.4100
     38 H38         0.3507    4.3076   54.1344 H       1  ZINC000552360217    0.1000
     39 H39        -1.2148    4.9100   53.5388 H       1  ZINC000552360217    0.1000
     40 H40        -3.0298    4.2014   54.7361 H       1  ZINC000552360217    0.4100
     41 H41        -3.1719    1.4977   55.7119 H       1  ZINC000552360217    0.0800
     42 H42        -2.8535    2.6603   57.0216 H       1  ZINC000552360217    0.0900
     43 H43        -4.3937    5.0193   56.1842 H       1  ZINC000552360217    0.0700
     44 H44        -5.9996    4.5217   56.7690 H       1  ZINC000552360217    0.0700
     45 H45        -4.5551    4.2101   57.7613 H       1  ZINC000552360217    0.0700
     46 H46        -5.1867    2.0040   54.1502 H       1  ZINC000552360217    0.0600
     47 H47        -6.3684    3.2335   54.6602 H       1  ZINC000552360217    0.0700
     48 H48        -4.7625    3.7311   54.0755 H       1  ZINC000552360217    0.0700
     49 H49        -6.7376    3.0317   57.9954 H       1  ZINC000552360217    0.0600
     50 H50        -7.3092    2.7606   56.3316 H       1  ZINC000552360217    0.0700
     51 H51        -8.5994    1.3859   57.9327 H       1  ZINC000552360217    0.0600
     52 H52        -7.6403    0.3515   56.8471 H       1  ZINC000552360217    0.0500
     53 H53        -7.3718   -0.2927   59.1235 H       1  ZINC000552360217    0.3800
     54 H54        -1.5170    2.5303   50.0260 H       1  ZINC000552360217    0.1500
@<TRIPOS>BOND
     1     1     2    1
     2     1    28    1
     3     1    29    1
     4     1    30    1
     5     2     3    1
     6     2     4   am
     7     3    31    1
     8     3    32    1
     9     3    33    1
    10     4     5    2
    11     4     6    2
    12     4     7    1
    13     7    27   ar
    14     7     8   ar
    15     8     9   ar
    16     8    34    1
    17     9    10   ar
    18     9    35    1
    19    10    11   ar
    20    10    36    1
    21    11    12    1
    22    11    27   ar
    23    12    13    2
    24    12    14   am
    25    14    15    1
    26    14    37    1
    27    15    16    1
    28    15    38    1
    29    15    39    1
    30    16    17    2
    31    16    18   am
    32    18    19    1
    33    18    40    1
    34    19    20    1
    35    19    41    1
    36    19    42    1
    37    20    21    1
    38    20    22    1
    39    20    23    1
    40    21    43    1
    41    21    44    1
    42    21    45    1
    43    22    46    1
    44    22    47    1
    45    22    48    1
    46    23    24    1
    47    24    25    1
    48    24    49    1
    49    24    50    1
    50    25    26    1
    51    25    51    1
    52    25    52    1
    53    26    53    1
    54    27    54    1
@<TRIPOS>SUBSTRUCTURE
     1 ZINC000552360217        1 TEMP              0 ****  ****    0 ROOT


##########                                Name:    ZINC001109848453
##########                DOCK_Rotatable_Bonds:                   8
##########                         Heavy_Atoms:                  24
##########                    Molecular_Weight:             328.337
##########                DOCK_Rotatable_Bonds:                   8
##########                       Formal_Charge:          0.00999966
##########                     HBond_Acceptors:                  11
##########                        HBond_Donors:                   2
##########                         Heavy_Atoms:                  24
##########                          Grid_Score:          -36.738853
##########                     Grid_vdw_energy:          -33.581738
##########                      Grid_es_energy:           -3.157116
##########           Internal_energy_repulsive:            5.949706

@<TRIPOS>MOLECULE
ZINC001109848453
 40 43 1 0 0
SMALL
USER_CHARGES


@<TRIPOS>ATOM
      1 O1         -4.2021    4.9661   52.0816 O.2     1  ZINC001109848453   -0.5000
      2 C2         -4.0484    3.7869   52.3197 C.2     1  ZINC001109848453    0.5000
      3 C3         -5.1057    3.0275   53.0790 C.3     1  ZINC001109848453    0.1100
      4 N4         -4.7117    2.9162   54.4856 N.pl3   1  ZINC001109848453   -0.3700
      5 C5         -5.5305    2.8780   55.5511 C.2     1  ZINC001109848453    0.2600
      6 N6         -4.7927    2.7741   56.6266 N.2     1  ZINC001109848453   -0.5400
      7 C7         -3.5040    2.7431   56.2893 C.2     1  ZINC001109848453    0.2000
      8 N8         -3.4037    2.8221   54.9884 N.2     1  ZINC001109848453   -0.2900
      9 N9         -2.9346    3.1542   51.9005 N.am    1  ZINC001109848453   -0.7300
     10 C10        -1.9068    3.8925   51.1624 C.3     1  ZINC001109848453    0.1700
     11 H11        -1.9373    4.9435   51.4498 H       1  ZINC001109848453    0.1000
     12 C12        -2.1683    3.7668   49.6602 C.3     1  ZINC001109848453    0.1200
     13 N13        -2.1925    2.3506   49.2857 N.pl3   1  ZINC001109848453   -0.6800
     14 C14        -1.9874    1.9794   47.9671 C.2     1  ZINC001109848453    0.4900
     15 N15        -2.1769    2.8490   46.9937 N.2     1  ZINC001109848453   -0.5300
     16 C16        -1.9832    2.5074   45.7174 C.2     1  ZINC001109848453    0.1400
     17 C17        -1.5880    1.2642   45.3737 C.2     1  ZINC001109848453   -0.0500
     18 N18        -1.3767    0.3225   46.3422 N.pl3   1  ZINC001109848453   -0.1800
     19 N19        -1.0089   -0.9094   46.3295 N.2     1  ZINC001109848453   -0.1000
     20 N20        -0.9637   -1.3521   47.5381 N.2     1  ZINC001109848453   -0.0400
     21 N21        -1.3009   -0.4189   48.3629 N.2     1  ZINC001109848453   -0.2600
     22 C22        -1.5671    0.6656   47.6524 C.2     1  ZINC001109848453    0.1000
     23 C23        -0.5288    3.3140   51.4903 C.3     1  ZINC001109848453   -0.1800
     24 C24         0.5905    4.3017   51.8256 C.3     1  ZINC001109848453   -0.1700
     25 C25        -0.0317    3.4464   52.9312 C.3     1  ZINC001109848453   -0.1700
     26 H26        -6.0553    3.5581   53.0086 H       1  ZINC001109848453    0.1300
     27 H27        -5.2141    2.0305   52.6521 H       1  ZINC001109848453    0.1200
     28 H28        -6.6091    2.9255   55.5241 H       1  ZINC001109848453    0.2200
     29 H29        -2.6767    2.6617   56.9788 H       1  ZINC001109848453    0.2200
     30 H30        -2.8135    2.2102   52.0876 H       1  ZINC001109848453    0.4000
     31 H31        -3.1284    4.2228   49.4191 H       1  ZINC001109848453    0.1000
     32 H32        -1.3764    4.2747   49.1098 H       1  ZINC001109848453    0.0900
     33 H33        -2.3522    1.6729   49.9611 H       1  ZINC001109848453    0.4200
     34 H34        -2.1468    3.2424   44.9431 H       1  ZINC001109848453    0.2000
     35 H35        -1.4389    1.0126   44.3341 H       1  ZINC001109848453    0.1900
     36 H36        -0.2564    2.4103   50.9450 H       1  ZINC001109848453    0.1100
     37 H37         1.5996    4.0481   51.5008 H       1  ZINC001109848453    0.1000
     38 H38         0.3452    5.3636   51.8127 H       1  ZINC001109848453    0.1000
     39 H39        -0.6863    3.9457   53.6456 H       1  ZINC001109848453    0.1200
     40 H40         0.5681    2.6301   53.3337 H       1  ZINC001109848453    0.0900
@<TRIPOS>BOND
     1     1     2    2
     2     2     3    1
     3     2     9   am
     4     3     4    1
     5     3    26    1
     6     3    27    1
     7     4     8    1
     8     4     5    1
     9     5     6    2
    10     5    28    1
    11     6     7    1
    12     7     8    2
    13     7    29    1
    14     9    10    1
    15     9    30    1
    16    10    11    1
    17    10    12    1
    18    10    23    1
    19    12    13    1
    20    12    31    1
    21    12    32    1
    22    13    14    1
    23    13    33    1
    24    14    22    1
    25    14    15    2
    26    15    16    1
    27    16    17    2
    28    16    34    1
    29    17    18    1
    30    17    35    1
    31    18    22    1
    32    18    19    1
    33    19    20    2
    34    20    21    1
    35    21    22    2
    36    23    25    1
    37    23    24    1
    38    23    36    1
    39    24    25    1
    40    24    37    1
    41    24    38    1
    42    25    39    1
    43    25    40    1
@<TRIPOS>SUBSTRUCTURE
     1 ZINC001109848453        1 TEMP              0 ****  ****    0 ROOT


##########                                Name:    ZINC000464139057
##########                DOCK_Rotatable_Bonds:                   9
##########                         Heavy_Atoms:                  30
##########                    Molecular_Weight:              413.56
##########                DOCK_Rotatable_Bonds:                   9
##########                       Formal_Charge:         2.38419e-07
##########                     HBond_Acceptors:                   6
##########                        HBond_Donors:                   2
##########                         Heavy_Atoms:                  30
##########                          Grid_Score:          -36.736660
##########                     Grid_vdw_energy:          -37.107861
##########                      Grid_es_energy:            0.371199
##########           Internal_energy_repulsive:           13.464011

@<TRIPOS>MOLECULE
ZINC000464139057
 65 67 1 0 0
SMALL
USER_CHARGES


@<TRIPOS>ATOM
      1 C1         -0.2599   -0.5200   47.9080 C.3     1  ZINC000464139057   -0.1800
      2 C2         -1.6272   -0.2375   47.2822 C.3     1  ZINC000464139057    0.0700
      3 H3         -2.3558   -0.9547   47.6603 H       1  ZINC000464139057    0.1200
      4 C4         -2.0723    1.1840   47.6447 C.3     1  ZINC000464139057    0.0800
      5 N5         -1.1783    2.1370   46.9680 N.am    1  ZINC000464139057   -0.6100
      6 C6         -0.5848    3.1361   47.6506 C.2     1  ZINC000464139057    0.5600
      7 O7          0.1504    3.9133   47.0738 O.2     1  ZINC000464139057   -0.5300
      8 C8         -0.8280    3.2867   49.1012 C.ar    1  ZINC000464139057   -0.1200
      9 C9         -2.1003    3.6214   49.5675 C.ar    1  ZINC000464139057   -0.0900
     10 C10        -2.3206    3.7600   50.9223 C.ar    1  ZINC000464139057   -0.1000
     11 C11        -1.2837    3.5685   51.8180 C.ar    1  ZINC000464139057   -0.0900
     12 C12        -1.5316    3.7220   53.2966 C.3     1  ZINC000464139057    0.1800
     13 N13        -2.9668    3.6044   53.5658 N.am    1  ZINC000464139057   -0.7400
     14 C14        -3.3931    3.1468   54.7597 C.2     1  ZINC000464139057    0.7000
     15 O15        -2.5867    2.8330   55.6137 O.2     1  ZINC000464139057   -0.5900
     16 N16        -4.7135    3.0370   55.0068 N.am    1  ZINC000464139057   -0.7500
     17 C17        -5.1769    2.5379   56.3038 C.3     1  ZINC000464139057    0.1400
     18 C18        -6.6904    2.7331   56.4142 C.3     1  ZINC000464139057   -0.0900
     19 C19        -7.2158    1.9374   57.5812 C.2     1  ZINC000464139057   -0.1200
     20 C20        -6.9381    2.3080   58.7908 C.2     1  ZINC000464139057   -0.1500
     21 C21        -7.4594    1.5179   59.9720 C.3     1  ZINC000464139057   -0.0900
     22 C22        -8.9660    1.7571   60.0932 C.3     1  ZINC000464139057   -0.1100
     23 C23        -9.7364    0.7978   59.2032 C.3     1  ZINC000464139057   -0.1200
     24 C24        -9.5117    1.0301   57.7195 C.3     1  ZINC000464139057   -0.1100
     25 C25        -8.0705    0.7128   57.3335 C.3     1  ZINC000464139057   -0.0800
     26 C26        -0.0202    3.2362   51.3624 C.ar    1  ZINC000464139057   -0.1000
     27 C27         0.2123    3.0893   50.0105 C.ar    1  ZINC000464139057   -0.0700
     28 C28        -0.9514    1.9667   45.5241 C.3     1  ZINC000464139057    0.0700
     29 C29        -0.5609    0.5071   45.2650 C.3     1  ZINC000464139057    0.0700
     30 H30         0.4171    0.3086   45.7034 H       1  ZINC000464139057    0.0700
     31 C31        -0.5062    0.2527   43.7572 C.3     1  ZINC000464139057   -0.1500
     32 O32        -1.5351   -0.3547   45.8604 O.3     1  ZINC000464139057   -0.3700
     33 H33         0.4682    0.1976   47.5295 H       1  ZINC000464139057    0.0600
     34 H34        -0.3305   -0.4287   48.9919 H       1  ZINC000464139057    0.0700
     35 H35         0.0568   -1.5302   47.6483 H       1  ZINC000464139057    0.0700
     36 H36        -3.0982    1.3434   47.3125 H       1  ZINC000464139057    0.0800
     37 H37        -2.0094    1.3244   48.7238 H       1  ZINC000464139057    0.1000
     38 H38        -2.9103    3.7719   48.8692 H       1  ZINC000464139057    0.1300
     39 H39        -3.3046    4.0189   51.2844 H       1  ZINC000464139057    0.1300
     40 H40        -0.9953    2.9425   53.8378 H       1  ZINC000464139057    0.0800
     41 H41        -1.1794    4.7000   53.6244 H       1  ZINC000464139057    0.0800
     42 H42        -3.6103    3.8558   52.8849 H       1  ZINC000464139057    0.4000
     43 H43        -5.3570    3.2885   54.3258 H       1  ZINC000464139057    0.4000
     44 H44        -4.9402    1.4775   56.3909 H       1  ZINC000464139057    0.0700
     45 H45        -4.6805    3.0879   57.1033 H       1  ZINC000464139057    0.0700
     46 H46        -6.9103    3.7898   56.5666 H       1  ZINC000464139057    0.0700
     47 H47        -7.1688    2.3911   55.4965 H       1  ZINC000464139057    0.0800
     48 H48        -6.3310    3.1856   58.9576 H       1  ZINC000464139057    0.1100
     49 H49        -7.2689    0.4562   59.8146 H       1  ZINC000464139057    0.0700
     50 H50        -6.9617    1.8503   60.8829 H       1  ZINC000464139057    0.0700
     51 H51        -9.2707    1.6086   61.1291 H       1  ZINC000464139057    0.0600
     52 H52        -9.1917    2.7814   59.7967 H       1  ZINC000464139057    0.0600
     53 H53        -9.4351   -0.2212   59.4460 H       1  ZINC000464139057    0.0600
     54 H54       -10.8003    0.9035   59.4154 H       1  ZINC000464139057    0.0600
     55 H55       -10.1855    0.3900   57.1500 H       1  ZINC000464139057    0.0600
     56 H56        -9.7235    2.0730   57.4835 H       1  ZINC000464139057    0.0600
     57 H57        -8.0252    0.4432   56.2783 H       1  ZINC000464139057    0.0700
     58 H58        -7.7024   -0.1140   57.9411 H       1  ZINC000464139057    0.0700
     59 H59         0.7849    3.0877   52.0668 H       1  ZINC000464139057    0.1300
     60 H60         1.1989    2.8296   49.6561 H       1  ZINC000464139057    0.1300
     61 H61        -1.8644    2.2049   44.9784 H       1  ZINC000464139057    0.0800
     62 H62        -0.1462    2.6255   45.1989 H       1  ZINC000464139057    0.1000
     63 H63         0.2338    0.9124   43.3041 H       1  ZINC000464139057    0.0800
     64 H64        -0.2285   -0.7851   43.5737 H       1  ZINC000464139057    0.0700
     65 H65        -1.4848    0.4498   43.3197 H       1  ZINC000464139057    0.0700
@<TRIPOS>BOND
     1     1     2    1
     2     1    33    1
     3     1    34    1
     4     1    35    1
     5     2     3    1
     6     2    32    1
     7     2     4    1
     8     4     5    1
     9     4    36    1
    10     4    37    1
    11     5     6   am
    12     5    28    1
    13     6     7    2
    14     6     8    1
    15     8    27   ar
    16     8     9   ar
    17     9    10   ar
    18     9    38    1
    19    10    11   ar
    20    10    39    1
    21    11    12    1
    22    11    26   ar
    23    12    13    1
    24    12    40    1
    25    12    41    1
    26    13    14   am
    27    13    42    1
    28    14    15    2
    29    14    16   am
    30    16    17    1
    31    16    43    1
    32    17    18    1
    33    17    44    1
    34    17    45    1
    35    18    19    1
    36    18    46    1
    37    18    47    1
    38    19    25    1
    39    19    20    2
    40    20    21    1
    41    20    48    1
    42    21    22    1
    43    21    49    1
    44    21    50    1
    45    22    23    1
    46    22    51    1
    47    22    52    1
    48    23    24    1
    49    23    53    1
    50    23    54    1
    51    24    25    1
    52    24    55    1
    53    24    56    1
    54    25    57    1
    55    25    58    1
    56    26    27   ar
    57    26    59    1
    58    27    60    1
    59    28    29    1
    60    28    61    1
    61    28    62    1
    62    29    30    1
    63    29    31    1
    64    29    32    1
    65    31    63    1
    66    31    64    1
    67    31    65    1
@<TRIPOS>SUBSTRUCTURE
     1 ZINC000464139057        1 TEMP              0 ****  ****    0 ROOT


##########                                Name:    ZINC001574157642
##########                DOCK_Rotatable_Bonds:                   9
##########                         Heavy_Atoms:                  28
##########                    Molecular_Weight:             387.445
##########                DOCK_Rotatable_Bonds:                   9
##########                       Formal_Charge:          -0.0400004
##########                     HBond_Acceptors:                  11
##########                        HBond_Donors:                   4
##########                         Heavy_Atoms:                  28
##########                          Grid_Score:          -36.528717
##########                     Grid_vdw_energy:          -34.473900
##########                      Grid_es_energy:           -2.054819
##########           Internal_energy_repulsive:           14.280909

@<TRIPOS>MOLECULE
ZINC001574157642
 53 55 1 0 0
SMALL
USER_CHARGES


@<TRIPOS>ATOM
      1 C1          1.5234    3.5408   50.6305 C.3     1  ZINC001574157642   -0.1400
      2 C2          0.3639    3.6851   51.6184 C.3     1  ZINC001574157642   -0.0900
      3 C3          0.9093    4.0902   52.9892 C.3     1  ZINC001574157642   -0.1500
      4 C4         -0.6031    4.7592   51.1165 C.3     1  ZINC001574157642   -0.1300
      5 C5         -2.0154    4.1761   51.0351 C.3     1  ZINC001574157642    0.1300
      6 H6         -2.6833    4.9046   50.5754 H       1  ZINC001574157642    0.1100
      7 C7         -2.5128    3.8458   52.4438 C.3     1  ZINC001574157642    0.1100
      8 N8         -3.9684    3.6822   52.4218 N.pl3   1  ZINC001574157642   -0.7100
      9 C9         -4.6376    3.2619   53.5645 C.ar    1  ZINC001574157642    0.3700
     10 C10        -3.9372    3.0851   54.7566 C.ar    1  ZINC001574157642    0.0000
     11 N11        -4.5714    2.6860   55.8411 N.ar    1  ZINC001574157642   -0.3700
     12 C12        -5.8801    2.4522   55.7981 C.ar    1  ZINC001574157642    0.0800
     13 C13        -6.5944    2.0033   57.0189 C.2     1  ZINC001574157642    0.2300
     14 N14        -6.0617    1.7708   58.2023 N.2     1  ZINC001574157642   -0.2700
     15 N15        -7.0081    1.4002   58.9946 N.pl3   1  ZINC001574157642   -0.2300
     16 N16        -8.1231    1.3902   58.3512 N.2     1  ZINC001574157642   -0.0400
     17 N17        -7.9079    1.7608   57.1346 N.2     1  ZINC001574157642   -0.2600
     18 C18        -6.5799    2.6293   54.6068 C.ar    1  ZINC001574157642    0.1600
     19 N19        -5.9446    3.0340   53.5221 N.ar    1  ZINC001574157642   -0.5000
     20 N20        -1.9937    2.9550   50.2261 N.am    1  ZINC001574157642   -0.7300
     21 C21        -1.9730    3.0381   48.8810 C.2     1  ZINC001574157642    0.5200
     22 O22        -1.9740    4.1237   48.3404 O.2     1  ZINC001574157642   -0.5100
     23 C23        -1.9488    1.7820   48.0487 C.3     1  ZINC001574157642   -0.1300
     24 H24        -2.7642    1.1258   48.3532 H       1  ZINC001574157642    0.1100
     25 C25        -0.6090    1.0618   48.2430 C.3     1  ZINC001574157642   -0.1000
     26 C26        -0.6814   -0.2938   47.5356 C.3     1  ZINC001574157642   -0.1400
     27 C27        -1.2060   -0.1145   46.1400 C.2     1  ZINC001574157642    0.5200
     28 O28        -1.0276   -1.0090   45.3405 O.2     1  ZINC001574157642   -0.5500
     29 N29        -1.8578    0.9752   45.7327 N.am    1  ZINC001574157642   -0.7200
     30 C30        -2.1051    2.1426   46.5709 C.3     1  ZINC001574157642    0.1200
     31 H31         2.0489    4.4920   50.5457 H       1  ZINC001574157642    0.0400
     32 H32         2.2122    2.7756   50.9880 H       1  ZINC001574157642    0.0500
     33 H33         1.1348    3.2522   49.6539 H       1  ZINC001574157642    0.0700
     34 H34        -0.1617    2.7339   51.7031 H       1  ZINC001574157642    0.0700
     35 H35         1.4349    5.0414   52.9045 H       1  ZINC001574157642    0.0500
     36 H36         0.0833    4.1930   53.6930 H       1  ZINC001574157642    0.0500
     37 H37         1.5983    3.3250   53.3467 H       1  ZINC001574157642    0.0500
     38 H38        -0.5979    5.6036   51.8058 H       1  ZINC001574157642    0.0700
     39 H39        -0.2914    5.0954   50.1277 H       1  ZINC001574157642    0.0800
     40 H40        -2.0482    2.9209   52.7855 H       1  ZINC001574157642    0.0800
     41 H41        -2.2485    4.6573   53.1219 H       1  ZINC001574157642    0.0900
     42 H42        -4.4651    3.8673   51.6094 H       1  ZINC001574157642    0.4100
     43 H43        -2.8746    3.2750   54.7917 H       1  ZINC001574157642    0.1700
     44 H44        -6.8975    1.1650   59.9292 H       1  ZINC001574157642    0.4800
     45 H45        -7.6425    2.4393   54.5712 H       1  ZINC001574157642    0.1800
     46 H46        -1.9941    2.0867   50.6584 H       1  ZINC001574157642    0.4000
     47 H47         0.1943    1.6586   47.8110 H       1  ZINC001574157642    0.0800
     48 H48        -0.4241    0.9114   49.3065 H       1  ZINC001574157642    0.0900
     49 H49         0.3148   -0.7343   47.4943 H       1  ZINC001574157642    0.1100
     50 H50        -1.3462   -0.9563   48.0900 H       1  ZINC001574157642    0.1000
     51 H51        -2.1907    0.9920   44.8218 H       1  ZINC001574157642    0.4000
     52 H52        -3.1157    2.5086   46.3896 H       1  ZINC001574157642    0.0800
     53 H53        -1.3907    2.9258   46.3176 H       1  ZINC001574157642    0.0700
@<TRIPOS>BOND
     1     1     2    1
     2     1    31    1
     3     1    32    1
     4     1    33    1
     5     2     3    1
     6     2     4    1
     7     2    34    1
     8     3    35    1
     9     3    36    1
    10     3    37    1
    11     4     5    1
    12     4    38    1
    13     4    39    1
    14     5     6    1
    15     5     7    1
    16     5    20    1
    17     7     8    1
    18     7    40    1
    19     7    41    1
    20     8     9    1
    21     8    42    1
    22     9    19   ar
    23     9    10   ar
    24    10    11   ar
    25    10    43    1
    26    11    12   ar
    27    12    13    1
    28    12    18   ar
    29    13    17    1
    30    13    14    2
    31    14    15    1
    32    15    16    1
    33    15    44    1
    34    16    17    2
    35    18    19   ar
    36    18    45    1
    37    20    21   am
    38    20    46    1
    39    21    22    2
    40    21    23    1
    41    23    24    1
    42    23    30    1
    43    23    25    1
    44    25    26    1
    45    25    47    1
    46    25    48    1
    47    26    27    1
    48    26    49    1
    49    26    50    1
    50    27    28    2
    51    27    29   am
    52    29    30    1
    53    29    51    1
    54    30    52    1
    55    30    53    1
@<TRIPOS>SUBSTRUCTURE
     1 ZINC001574157642        1 TEMP              0 ****  ****    0 ROOT


##########                                Name:    ZINC000435005159
##########                DOCK_Rotatable_Bonds:                  12
##########                         Heavy_Atoms:                  30
##########                    Molecular_Weight:             401.508
##########                DOCK_Rotatable_Bonds:                  12
##########                       Formal_Charge:          -0.0399985
##########                     HBond_Acceptors:                   5
##########                        HBond_Donors:                   2
##########                         Heavy_Atoms:                  30
##########                          Grid_Score:          -36.498459
##########                     Grid_vdw_energy:          -34.276054
##########                      Grid_es_energy:           -2.222406
##########           Internal_energy_repulsive:           18.572723

@<TRIPOS>MOLECULE
ZINC000435005159
 57 59 1 0 0
SMALL
USER_CHARGES


@<TRIPOS>ATOM
      1 O1         -2.9145    2.0953   48.7800 O.2     1  ZINC000435005159   -0.5300
      2 C2         -2.1486    2.9734   48.4433 C.2     1  ZINC000435005159    0.5200
      3 C3         -2.1539    4.2958   49.1659 C.3     1  ZINC000435005159   -0.1400
      4 C4         -2.0153    4.0554   50.6706 C.3     1  ZINC000435005159   -0.1200
      5 C5         -0.6878    3.3497   50.9541 C.3     1  ZINC000435005159    0.1200
      6 N6         -0.5385    3.1520   52.3981 N.am    1  ZINC000435005159   -0.7200
      7 C7          0.0250    4.1141   53.1552 C.2     1  ZINC000435005159    0.5600
      8 O8          0.4108    5.1452   52.6399 O.2     1  ZINC000435005159   -0.5300
      9 C9          0.1741    3.9154   54.6127 C.ar    1  ZINC000435005159   -0.1900
     10 C10        -0.2843    2.7412   55.2215 C.ar    1  ZINC000435005159   -0.0200
     11 C11        -0.1204    2.6042   56.5889 C.ar    1  ZINC000435005159   -0.1800
     12 C12         0.4851    3.6219   57.3034 C.ar    1  ZINC000435005159    0.1200
     13 N13         0.9072    4.7184   56.7026 N.ar    1  ZINC000435005159   -0.4900
     14 C14         0.7793    4.8929   55.4039 C.ar    1  ZINC000435005159    0.1400
     15 N15        -1.2890    2.7646   47.4265 N.am    1  ZINC000435005159   -0.7300
     16 C16        -1.2839    1.4790   46.7241 C.3     1  ZINC000435005159    0.1900
     17 H17        -2.2883    1.0557   46.7334 H       1  ZINC000435005159    0.1000
     18 C18        -0.8331    1.6902   45.2773 C.3     1  ZINC000435005159   -0.1200
     19 C19        -0.8197    0.3464   44.5460 C.3     1  ZINC000435005159   -0.0800
     20 C20         0.2568    0.3590   43.4914 C.ar    1  ZINC000435005159   -0.0800
     21 C21        -0.0413   -0.0169   42.1949 C.ar    1  ZINC000435005159   -0.1200
     22 C22         0.9461   -0.0052   41.2275 C.ar    1  ZINC000435005159   -0.1200
     23 C23         2.2315    0.3827   41.5566 C.ar    1  ZINC000435005159   -0.1200
     24 C24         2.5293    0.7594   42.8528 C.ar    1  ZINC000435005159   -0.1200
     25 C25         1.5409    0.7519   43.8192 C.ar    1  ZINC000435005159   -0.1200
     26 C26        -0.3339    0.5336   47.4133 C.ar    1  ZINC000435005159   -0.1000
     27 C27         0.9523    0.9424   47.7123 C.ar    1  ZINC000435005159   -0.1100
     28 C28         1.8237    0.0754   48.3445 C.ar    1  ZINC000435005159   -0.1200
     29 C29         1.4087   -1.2004   48.6782 C.ar    1  ZINC000435005159   -0.1200
     30 C30         0.1221   -1.6088   48.3800 C.ar    1  ZINC000435005159   -0.1200
     31 C31        -0.7506   -0.7402   47.7516 C.ar    1  ZINC000435005159   -0.1000
     32 H32        -1.3193    4.9040   48.8169 H       1  ZINC000435005159    0.1000
     33 H33        -3.0909    4.8156   48.9659 H       1  ZINC000435005159    0.1000
     34 H34        -2.0383    5.0108   51.1948 H       1  ZINC000435005159    0.0800
     35 H35        -2.8396    3.4315   51.0162 H       1  ZINC000435005159    0.0800
     36 H36        -0.6758    2.3825   50.4519 H       1  ZINC000435005159    0.0700
     37 H37         0.1351    3.9615   50.5844 H       1  ZINC000435005159    0.0700
     38 H38        -0.8453    2.3287   52.8092 H       1  ZINC000435005159    0.4000
     39 H39        -0.7541    1.9623   54.6391 H       1  ZINC000435005159    0.1500
     40 H40        -0.4621    1.7122   57.0928 H       1  ZINC000435005159    0.1500
     41 H41         0.6144    3.5176   58.3706 H       1  ZINC000435005159    0.1600
     42 H42         1.1375    5.8042   54.9483 H       1  ZINC000435005159    0.1600
     43 H43        -0.6738    3.4655   47.1599 H       1  ZINC000435005159    0.4000
     44 H44        -1.5236    2.3693   44.7771 H       1  ZINC000435005159    0.0700
     45 H45         0.1691    2.1190   45.2678 H       1  ZINC000435005159    0.0800
     46 H46        -0.6204   -0.4534   45.2590 H       1  ZINC000435005159    0.0700
     47 H47        -1.7883    0.1797   44.0744 H       1  ZINC000435005159    0.0700
     48 H48        -1.0455   -0.3199   41.9378 H       1  ZINC000435005159    0.1200
     49 H49         0.7135   -0.2996   40.2148 H       1  ZINC000435005159    0.1200
     50 H50         3.0031    0.3911   40.8010 H       1  ZINC000435005159    0.1200
     51 H51         3.5336    1.0621   43.1100 H       1  ZINC000435005159    0.1200
     52 H52         1.7736    1.0462   44.8320 H       1  ZINC000435005159    0.1200
     53 H53         1.2766    1.9391   47.4516 H       1  ZINC000435005159    0.1200
     54 H54         2.8288    0.3944   48.5774 H       1  ZINC000435005159    0.1200
     55 H55         2.0896   -1.8780   49.1715 H       1  ZINC000435005159    0.1200
     56 H56        -0.2020   -2.6055   48.6404 H       1  ZINC000435005159    0.1200
     57 H57        -1.7558   -1.0593   47.5187 H       1  ZINC000435005159    0.1200
@<TRIPOS>BOND
     1     1     2    2
     2     2     3    1
     3     2    15   am
     4     3     4    1
     5     3    32    1
     6     3    33    1
     7     4     5    1
     8     4    34    1
     9     4    35    1
    10     5     6    1
    11     5    36    1
    12     5    37    1
    13     6     7   am
    14     6    38    1
    15     7     8    2
    16     7     9    1
    17     9    14   ar
    18     9    10   ar
    19    10    11   ar
    20    10    39    1
    21    11    12   ar
    22    11    40    1
    23    12    13   ar
    24    12    41    1
    25    13    14   ar
    26    14    42    1
    27    15    16    1
    28    15    43    1
    29    16    17    1
    30    16    18    1
    31    16    26    1
    32    18    19    1
    33    18    44    1
    34    18    45    1
    35    19    20    1
    36    19    46    1
    37    19    47    1
    38    20    25   ar
    39    20    21   ar
    40    21    22   ar
    41    21    48    1
    42    22    23   ar
    43    22    49    1
    44    23    24   ar
    45    23    50    1
    46    24    25   ar
    47    24    51    1
    48    25    52    1
    49    26    31   ar
    50    26    27   ar
    51    27    28   ar
    52    27    53    1
    53    28    29   ar
    54    28    54    1
    55    29    30   ar
    56    29    55    1
    57    30    31   ar
    58    30    56    1
    59    31    57    1
@<TRIPOS>SUBSTRUCTURE
     1 ZINC000435005159        1 TEMP              0 ****  ****    0 ROOT


##########                                Name:    ZINC000033150761
##########                DOCK_Rotatable_Bonds:                   7
##########                         Heavy_Atoms:                  29
##########                    Molecular_Weight:             413.407
##########                DOCK_Rotatable_Bonds:                   7
##########                       Formal_Charge:          0.00999993
##########                     HBond_Acceptors:                  10
##########                        HBond_Donors:                   1
##########                         Heavy_Atoms:                  29
##########                          Grid_Score:          -36.413174
##########                     Grid_vdw_energy:          -36.578182
##########                      Grid_es_energy:            0.165010
##########           Internal_energy_repulsive:            5.817738

@<TRIPOS>MOLECULE
ZINC000033150761
 42 45 1 0 0
SMALL
USER_CHARGES


@<TRIPOS>ATOM
      1 O1         -2.9280    3.7494   53.9124 O.2     1  ZINC000033150761   -0.5000
      2 C2         -4.0455    3.3267   53.7042 C.2     1  ZINC000033150761    0.5200
      3 C3         -5.0031    3.1316   54.8514 C.3     1  ZINC000033150761   -0.1300
      4 C4         -4.2159    2.8174   56.1251 C.3     1  ZINC000033150761   -0.0100
      5 C5         -5.1690    2.6844   57.2848 C.2     1  ZINC000033150761    0.1800
      6 N6         -5.7039    1.5745   57.7289 N.2     1  ZINC000033150761   -0.4400
      7 C7         -6.4834    1.9389   58.7718 C.2     1  ZINC000033150761    0.2200
      8 C8         -7.3058    1.0354   59.6155 C.ar    1  ZINC000033150761    0.1900
      9 C9         -8.0513    1.5615   60.6670 C.ar    1  ZINC000033150761   -0.1300
     10 C10        -8.8137    0.7064   61.4454 C.ar    1  ZINC000033150761   -0.0700
     11 C11        -8.8042   -0.6474   61.1450 C.ar    1  ZINC000033150761   -0.1500
     12 C12        -8.0398   -1.1016   60.0849 C.ar    1  ZINC000033150761    0.1100
     13 N13        -7.3282   -0.2655   59.3576 N.ar    1  ZINC000033150761   -0.4500
     14 N14        -6.3772    3.2356   58.8987 N.2     1  ZINC000033150761   -0.3600
     15 O15        -5.6228    3.6764   58.0573 O.3     1  ZINC000033150761    0.0900
     16 N16        -4.4329    3.0366   52.4463 N.am    1  ZINC000033150761   -0.6200
     17 C17        -3.5499    3.2165   51.3886 C.2     1  ZINC000033150761    0.2700
     18 N18        -3.2952    2.3400   50.4676 N.2     1  ZINC000033150761   -0.5000
     19 C19        -2.4217    2.6860   49.5325 C.2     1  ZINC000033150761    0.1200
     20 C20        -2.0443    1.7751   48.4243 C.ar    1  ZINC000033150761    0.0000
     21 C21        -1.7750    0.4328   48.6841 C.ar    1  ZINC000033150761   -0.0800
     22 C22        -1.4245   -0.4122   47.6504 C.ar    1  ZINC000033150761   -0.1200
     23 C23        -1.3400    0.0713   46.3558 C.ar    1  ZINC000033150761    0.0700
     24 F24        -0.9967   -0.7596   45.3474 F       1  ZINC000033150761   -0.1300
     25 C25        -1.6076    1.4071   46.0911 C.ar    1  ZINC000033150761    0.0700
     26 F26        -1.5244    1.8742   44.8261 F       1  ZINC000033150761   -0.1300
     27 C27        -1.9638    2.2583   47.1192 C.ar    1  ZINC000033150761   -0.1000
     28 C28        -1.9013    3.9199   49.6578 C.2     1  ZINC000033150761   -0.2800
     29 S29        -2.6078    4.6732   51.0856 S.3     1  ZINC000033150761    0.2200
     30 H30        -5.5841    4.0421   54.9986 H       1  ZINC000033150761    0.1200
     31 H31        -5.6757    2.3038   54.6265 H       1  ZINC000033150761    0.1200
     32 H32        -3.6706    1.8827   55.9939 H       1  ZINC000033150761    0.1300
     33 H33        -3.5109    3.6243   56.3248 H       1  ZINC000033150761    0.1200
     34 H34        -8.0350    2.6215   60.8730 H       1  ZINC000033150761    0.1400
     35 H35        -9.4020    1.0854   62.2680 H       1  ZINC000033150761    0.1500
     36 H36        -9.3876   -1.3406   61.7329 H       1  ZINC000033150761    0.1400
     37 H37        -8.0299   -2.1551   59.8479 H       1  ZINC000033150761    0.1700
     38 H38        -5.3280    2.7022   52.2794 H       1  ZINC000033150761    0.4300
     39 H39        -1.8399    0.0541   49.6933 H       1  ZINC000033150761    0.1400
     40 H40        -1.2154   -1.4524   47.8519 H       1  ZINC000033150761    0.1500
     41 H41        -2.1721    3.2979   46.9134 H       1  ZINC000033150761    0.1600
     42 H42        -1.1788    4.3725   48.9950 H       1  ZINC000033150761    0.1800
@<TRIPOS>BOND
     1     1     2    2
     2     2     3    1
     3     2    16   am
     4     3     4    1
     5     3    30    1
     6     3    31    1
     7     4     5    1
     8     4    32    1
     9     4    33    1
    10     5    15    1
    11     5     6    2
    12     6     7    1
    13     7     8    1
    14     7    14    2
    15     8    13   ar
    16     8     9   ar
    17     9    10   ar
    18     9    34    1
    19    10    11   ar
    20    10    35    1
    21    11    12   ar
    22    11    36    1
    23    12    13   ar
    24    12    37    1
    25    14    15    1
    26    16    17    1
    27    16    38    1
    28    17    29    1
    29    17    18    2
    30    18    19    1
    31    19    20    1
    32    19    28    2
    33    20    27   ar
    34    20    21   ar
    35    21    22   ar
    36    21    39    1
    37    22    23   ar
    38    22    40    1
    39    23    24    1
    40    23    25   ar
    41    25    26    1
    42    25    27   ar
    43    27    41    1
    44    28    29    1
    45    28    42    1
@<TRIPOS>SUBSTRUCTURE
     1 ZINC000033150761        1 TEMP              0 ****  ****    0 ROOT


##########                                Name:    ZINC001461256440
##########                DOCK_Rotatable_Bonds:                  13
##########                         Heavy_Atoms:                  26
##########                    Molecular_Weight:             367.445
##########                DOCK_Rotatable_Bonds:                  13
##########                       Formal_Charge:        -6.37025e-07
##########                     HBond_Acceptors:                   8
##########                        HBond_Donors:                   1
##########                         Heavy_Atoms:                  26
##########                          Grid_Score:          -36.407600
##########                     Grid_vdw_energy:          -34.447128
##########                      Grid_es_energy:           -1.960472
##########           Internal_energy_repulsive:           37.525490

@<TRIPOS>MOLECULE
ZINC001461256440
 55 55 1 0 0
SMALL
USER_CHARGES


@<TRIPOS>ATOM
      1 C1          0.2462   -0.6216   41.4491 C.3     1  ZINC001461256440   -0.1500
      2 C2          0.5844    0.2745   42.6423 C.3     1  ZINC001461256440    0.0600
      3 O3         -0.6284    0.5720   43.3832 O.3     1  ZINC001461256440   -0.3600
      4 C4         -0.5126    1.3966   44.4359 C.2     1  ZINC001461256440    0.4400
      5 O5          0.5048    2.0272   44.6003 O.2     1  ZINC001461256440   -0.4800
      6 C6         -1.6515    1.5357   45.4130 C.3     1  ZINC001461256440    0.1400
      7 N7         -1.3138    0.8424   46.6586 N.pl3   1  ZINC001461256440   -0.3800
      8 N8         -0.6937   -0.4092   46.7632 N.2     1  ZINC001461256440   -0.2800
      9 C9         -0.5568   -0.6968   48.0324 C.2     1  ZINC001461256440    0.1000
     10 C10         0.0637   -1.9515   48.5908 C.3     1  ZINC001461256440   -0.0700
     11 C11        -1.0835    0.3589   48.7814 C.2     1  ZINC001461256440   -0.2700
     12 C12        -1.5403    1.3003   47.9110 C.2     1  ZINC001461256440    0.3100
     13 N13        -2.1406    2.5130   48.2491 N.am    1  ZINC001461256440   -0.6500
     14 C14        -1.4174    3.4785   48.8502 C.2     1  ZINC001461256440    0.5200
     15 O15        -0.2442    3.2932   49.0961 O.2     1  ZINC001461256440   -0.5000
     16 C16        -2.0664    4.7881   49.2171 C.3     1  ZINC001461256440   -0.1300
     17 C17        -1.5618    5.2408   50.5886 C.3     1  ZINC001461256440   -0.1100
     18 C18        -2.2116    4.3864   51.6788 C.3     1  ZINC001461256440   -0.1100
     19 C19        -3.6103    4.9262   51.9840 C.3     1  ZINC001461256440   -0.1200
     20 C20        -4.1863    4.1895   53.1657 C.2     1  ZINC001461256440    0.4600
     21 O21        -4.8888    3.2222   52.9907 O.2     1  ZINC001461256440   -0.5000
     22 O22        -3.9187    4.6079   54.4128 O.3     1  ZINC001461256440   -0.3500
     23 C23        -4.4367    3.8019   55.5039 C.3     1  ZINC001461256440    0.1200
     24 C24        -5.9655    3.7863   55.4452 C.3     1  ZINC001461256440   -0.1800
     25 C25        -3.9069    2.3721   55.3781 C.3     1  ZINC001461256440   -0.1400
     26 C26        -3.9837    4.3981   56.8381 C.3     1  ZINC001461256440   -0.1800
     27 H27         1.1567   -0.8449   40.8929 H       1  ZINC001461256440    0.0800
     28 H28        -0.1982   -1.5504   41.8068 H       1  ZINC001461256440    0.0700
     29 H29        -0.4607   -0.1078   40.7977 H       1  ZINC001461256440    0.0700
     30 H30         1.2913   -0.2393   43.2937 H       1  ZINC001461256440    0.0700
     31 H31         1.0288    1.2033   42.2846 H       1  ZINC001461256440    0.0700
     32 H32        -1.8253    2.5916   45.6204 H       1  ZINC001461256440    0.1300
     33 H33        -2.5527    1.0963   44.9855 H       1  ZINC001461256440    0.1400
     34 H34         1.1337   -1.7972   48.7292 H       1  ZINC001461256440    0.0800
     35 H35        -0.3964   -2.1884   49.5500 H       1  ZINC001461256440    0.0800
     36 H36        -0.0977   -2.7765   47.8968 H       1  ZINC001461256440    0.0700
     37 H37        -1.1186    0.4187   49.8593 H       1  ZINC001461256440    0.1800
     38 H38        -3.0785    2.6616   48.0514 H       1  ZINC001461256440    0.4100
     39 H39        -1.8136    5.5407   48.4702 H       1  ZINC001461256440    0.1000
     40 H40        -3.1484    4.6602   49.2521 H       1  ZINC001461256440    0.1000
     41 H41        -0.4789    5.1252   50.6336 H       1  ZINC001461256440    0.0800
     42 H42        -1.8222    6.2878   50.7441 H       1  ZINC001461256440    0.0800
     43 H43        -2.2873    3.3548   51.3350 H       1  ZINC001461256440    0.0700
     44 H44        -1.6024    4.4246   52.5818 H       1  ZINC001461256440    0.0700
     45 H45        -3.5470    5.9897   52.2145 H       1  ZINC001461256440    0.1100
     46 H46        -4.2534    4.7803   51.1162 H       1  ZINC001461256440    0.1100
     47 H47        -6.2883    3.3616   54.4946 H       1  ZINC001461256440    0.0600
     48 H48        -6.3544    3.1813   56.2642 H       1  ZINC001461256440    0.0700
     49 H49        -6.3430    4.8049   55.5347 H       1  ZINC001461256440    0.0800
     50 H50        -2.8178    2.3833   55.4199 H       1  ZINC001461256440    0.0700
     51 H51        -4.2958    1.7672   56.1971 H       1  ZINC001461256440    0.0800
     52 H52        -4.2297    1.9474   54.4275 H       1  ZINC001461256440    0.0700
     53 H53        -4.3612    5.4168   56.9277 H       1  ZINC001461256440    0.0800
     54 H54        -4.3725    3.7932   57.6571 H       1  ZINC001461256440    0.0700
     55 H55        -2.8946    4.4093   56.8800 H       1  ZINC001461256440    0.0600
@<TRIPOS>BOND
     1     1     2    1
     2     1    27    1
     3     1    28    1
     4     1    29    1
     5     2     3    1
     6     2    30    1
     7     2    31    1
     8     3     4    1
     9     4     5    2
    10     4     6    1
    11     6     7    1
    12     6    32    1
    13     6    33    1
    14     7    12    1
    15     7     8    1
    16     8     9    2
    17     9    10    1
    18     9    11    1
    19    10    34    1
    20    10    35    1
    21    10    36    1
    22    11    12    2
    23    11    37    1
    24    12    13    1
    25    13    14   am
    26    13    38    1
    27    14    15    2
    28    14    16    1
    29    16    17    1
    30    16    39    1
    31    16    40    1
    32    17    18    1
    33    17    41    1
    34    17    42    1
    35    18    19    1
    36    18    43    1
    37    18    44    1
    38    19    20    1
    39    19    45    1
    40    19    46    1
    41    20    21    2
    42    20    22    1
    43    22    23    1
    44    23    24    1
    45    23    25    1
    46    23    26    1
    47    24    47    1
    48    24    48    1
    49    24    49    1
    50    25    50    1
    51    25    51    1
    52    25    52    1
    53    26    53    1
    54    26    54    1
    55    26    55    1
@<TRIPOS>SUBSTRUCTURE
     1 ZINC001461256440        1 TEMP              0 ****  ****    0 ROOT


##########                                Name:    ZINC000474251633
##########                DOCK_Rotatable_Bonds:                   8
##########                         Heavy_Atoms:                  28
##########                    Molecular_Weight:             416.931
##########                DOCK_Rotatable_Bonds:                   8
##########                       Formal_Charge:          0.00999953
##########                     HBond_Acceptors:                   8
##########                        HBond_Donors:                   2
##########                         Heavy_Atoms:                  28
##########                          Grid_Score:          -36.315281
##########                     Grid_vdw_energy:          -33.583347
##########                      Grid_es_energy:           -2.731935
##########           Internal_energy_repulsive:            6.951924

@<TRIPOS>MOLECULE
ZINC000474251633
 49 52 1 0 0
SMALL
USER_CHARGES


@<TRIPOS>ATOM
      1 O1         -1.1749    4.2453   49.0171 O.2     1  ZINC000474251633   -0.5300
      2 C2         -1.3385    3.1031   49.3907 C.2     1  ZINC000474251633    0.5100
      3 C3         -2.2655    2.1879   48.6328 C.3     1  ZINC000474251633    0.1000
      4 N4         -1.7356    1.9627   47.2857 N.am    1  ZINC000474251633   -0.7100
      5 C5         -0.7150    1.1027   47.0981 C.2     1  ZINC000474251633    0.5900
      6 O6         -0.2347    0.5122   48.0473 O.2     1  ZINC000474251633   -0.5000
      7 C7         -0.1829    0.8783   45.7481 C.2     1  ZINC000474251633   -0.2300
      8 C8          1.0657    1.1690   45.3643 C.2     1  ZINC000474251633    0.0400
      9 Cl9         2.2302    1.8630   46.4488 Cl      1  ZINC000474251633   -0.0100
     10 C10         1.3714    0.8745   44.0244 C.ar    1  ZINC000474251633   -0.0900
     11 C11         2.5894    1.0640   43.3296 C.ar    1  ZINC000474251633   -0.0600
     12 C12         2.6983    0.7148   42.0201 C.ar    1  ZINC000474251633   -0.1200
     13 C13         1.6180    0.1662   41.3403 C.ar    1  ZINC000474251633   -0.0800
     14 C14         0.4217   -0.0297   41.9877 C.ar    1  ZINC000474251633   -0.0900
     15 C15         0.2853    0.3211   43.3347 C.ar    1  ZINC000474251633   -0.1200
     16 S16        -1.0945    0.1851   44.4186 S.3     1  ZINC000474251633    0.1700
     17 N17        -0.6871    2.6506   50.4803 N.am    1  ZINC000474251633   -0.7200
     18 C18         0.2139    3.5402   51.2170 C.3     1  ZINC000474251633    0.2100
     19 C19         0.0966    3.2635   52.6938 C.2     1  ZINC000474251633    0.0500
     20 N20        -0.9650    3.4680   53.4306 N.2     1  ZINC000474251633   -0.2700
     21 N21        -0.6666    3.0835   54.7443 N.pl3   1  ZINC000474251633   -0.3600
     22 C22        -1.5779    3.1489   55.8896 C.3     1  ZINC000474251633    0.1500
     23 C23        -2.2859    4.5190   55.9239 C.3     1  ZINC000474251633   -0.1400
     24 C24        -3.6363    4.2669   55.2085 C.3     1  ZINC000474251633   -0.1300
     25 C25        -4.0226    2.8489   55.6976 C.3     1  ZINC000474251633   -0.1200
     26 C26        -2.6822    2.0870   55.7457 C.3     1  ZINC000474251633   -0.1400
     27 C27         0.6084    2.6424   54.7684 C.2     1  ZINC000474251633    0.0600
     28 C28         1.1018    2.7378   53.5120 C.2     1  ZINC000474251633   -0.2600
     29 H29        -2.3437    1.2351   49.1565 H       1  ZINC000474251633    0.1100
     30 H30        -3.2520    2.6463   48.5633 H       1  ZINC000474251633    0.1100
     31 H31        -2.1194    2.4325   46.5288 H       1  ZINC000474251633    0.4100
     32 H32         3.4388    1.4895   43.8432 H       1  ZINC000474251633    0.1300
     33 H33         3.6343    0.8657   41.5028 H       1  ZINC000474251633    0.1400
     34 H34         1.7185   -0.1066   40.3002 H       1  ZINC000474251633    0.1400
     35 H35        -0.4155   -0.4559   41.4548 H       1  ZINC000474251633    0.1400
     36 H36        -0.8150    1.7359   50.7768 H       1  ZINC000474251633    0.4100
     37 H37         1.2405    3.3654   50.8951 H       1  ZINC000474251633    0.0900
     38 H38        -0.0573    4.5772   51.0192 H       1  ZINC000474251633    0.0900
     39 H39        -1.0254    2.9900   56.8156 H       1  ZINC000474251633    0.1100
     40 H40        -2.4529    4.8365   56.9533 H       1  ZINC000474251633    0.0900
     41 H41        -1.7015    5.2641   55.3840 H       1  ZINC000474251633    0.0800
     42 H42        -4.3811    4.9993   55.5200 H       1  ZINC000474251633    0.0800
     43 H43        -3.5085    4.2806   54.1261 H       1  ZINC000474251633    0.0700
     44 H44        -4.4702    2.8966   56.6903 H       1  ZINC000474251633    0.0700
     45 H45        -4.7057    2.3751   54.9926 H       1  ZINC000474251633    0.0700
     46 H46        -2.5400    1.5231   54.8238 H       1  ZINC000474251633    0.0700
     47 H47        -2.6661    1.4132   56.6023 H       1  ZINC000474251633    0.0800
     48 H48         1.1388    2.2748   55.6346 H       1  ZINC000474251633    0.1700
     49 H49         2.0977    2.4625   53.1979 H       1  ZINC000474251633    0.1500
@<TRIPOS>BOND
     1     1     2    2
     2     2     3    1
     3     2    17   am
     4     3     4    1
     5     3    29    1
     6     3    30    1
     7     4     5   am
     8     4    31    1
     9     5     6    2
    10     5     7    1
    11     7    16    1
    12     7     8    2
    13     8     9    1
    14     8    10    1
    15    10    15   ar
    16    10    11   ar
    17    11    12   ar
    18    11    32    1
    19    12    13   ar
    20    12    33    1
    21    13    14   ar
    22    13    34    1
    23    14    15   ar
    24    14    35    1
    25    15    16    1
    26    17    18    1
    27    17    36    1
    28    18    19    1
    29    18    37    1
    30    18    38    1
    31    19    28    1
    32    19    20    2
    33    20    21    1
    34    21    22    1
    35    21    27    1
    36    22    26    1
    37    22    23    1
    38    22    39    1
    39    23    24    1
    40    23    40    1
    41    23    41    1
    42    24    25    1
    43    24    42    1
    44    24    43    1
    45    25    26    1
    46    25    44    1
    47    25    45    1
    48    26    46    1
    49    26    47    1
    50    27    28    2
    51    27    48    1
    52    28    49    1
@<TRIPOS>SUBSTRUCTURE
     1 ZINC000474251633        1 TEMP              0 ****  ****    0 ROOT


##########                                Name:    ZINC000487792031
##########                DOCK_Rotatable_Bonds:                  12
##########                         Heavy_Atoms:                  29
##########                    Molecular_Weight:             414.569
##########                DOCK_Rotatable_Bonds:                  12
##########                       Formal_Charge:          -0.0100001
##########                     HBond_Acceptors:                   6
##########                        HBond_Donors:                   1
##########                         Heavy_Atoms:                  29
##########                          Grid_Score:          -36.115273
##########                     Grid_vdw_energy:          -34.826935
##########                      Grid_es_energy:           -1.288337
##########           Internal_energy_repulsive:           15.978163

@<TRIPOS>MOLECULE
ZINC000487792031
 59 60 1 0 0
SMALL
USER_CHARGES


@<TRIPOS>ATOM
      1 C1         -6.8835    1.9498   56.8383 C.2     1  ZINC000487792031   -0.1900
      2 C2         -5.5971    2.1923   56.8892 C.2     1  ZINC000487792031   -0.1500
      3 C3         -5.1031    3.6047   57.0687 C.3     1  ZINC000487792031   -0.0900
      4 C4         -4.8954    4.2505   55.6974 C.3     1  ZINC000487792031   -0.0900
      5 C5         -3.8291    3.4726   54.9235 C.3     1  ZINC000487792031   -0.0700
      6 H6         -4.1206    2.4243   54.8573 H       1  ZINC000487792031    0.1100
      7 C7         -3.6970    4.0459   53.5361 C.2     1  ZINC000487792031    0.5200
      8 O8         -4.1751    5.1307   53.2802 O.2     1  ZINC000487792031   -0.5300
      9 N9         -3.0477    3.3531   52.5796 N.am    1  ZINC000487792031   -0.7200
     10 C10        -2.9207    3.9096   51.2305 C.3     1  ZINC000487792031    0.1500
     11 C11        -2.1366    2.9566   50.3657 C.ar    1  ZINC000487792031   -0.0500
     12 C12        -0.7668    3.0992   50.2462 C.ar    1  ZINC000487792031   -0.1200
     13 C13        -0.0475    2.2250   49.4529 C.ar    1  ZINC000487792031   -0.0200
     14 C14        -0.6979    1.2079   48.7795 C.ar    1  ZINC000487792031   -0.6700
     15 S15         0.2189    0.0940   47.7679 S.o2    1  ZINC000487792031    2.6900
     16 O16         1.4712   -0.0954   48.4124 O.2     1  ZINC000487792031   -0.9500
     17 O17        -0.6608   -0.9755   47.4494 O.2     1  ZINC000487792031   -0.9500
     18 N18         0.5394    0.8758   46.3438 N.am    1  ZINC000487792031   -1.0000
     19 C19        -0.5635    1.3474   45.5026 C.3     1  ZINC000487792031    0.1200
     20 C20        -0.8602    0.3073   44.4205 C.3     1  ZINC000487792031   -0.1800
     21 C21         1.9260    1.0958   45.9250 C.3     1  ZINC000487792031    0.1100
     22 C22         2.4061    2.4530   46.4433 C.3     1  ZINC000487792031   -0.1800
     23 C23        -2.0675    1.0646   48.8999 C.ar    1  ZINC000487792031   -0.0200
     24 C24        -2.7863    1.9364   49.6963 C.ar    1  ZINC000487792031   -0.1200
     25 C25        -2.5080    3.5824   55.6402 C.ar    1  ZINC000487792031   -0.0800
     26 C26        -2.0077    2.4986   56.3375 C.ar    1  ZINC000487792031   -0.1100
     27 C27        -0.7958    2.5994   56.9949 C.ar    1  ZINC000487792031   -0.1100
     28 C28        -0.0842    3.7837   56.9547 C.ar    1  ZINC000487792031   -0.1200
     29 C29        -0.5840    4.8672   56.2567 C.ar    1  ZINC000487792031   -0.1200
     30 C30        -1.7938    4.7650   55.5957 C.ar    1  ZINC000487792031   -0.1100
     31 H31        -7.2375    0.9375   56.7097 H       1  ZINC000487792031    0.1000
     32 H32        -7.5900    2.7615   56.9294 H       1  ZINC000487792031    0.1000
     33 H33        -4.8906    1.3800   56.8025 H       1  ZINC000487792031    0.1100
     34 H34        -5.8388    4.1780   57.6327 H       1  ZINC000487792031    0.0700
     35 H35        -4.1579    3.5928   57.6116 H       1  ZINC000487792031    0.0700
     36 H36        -5.8329    4.2328   55.1417 H       1  ZINC000487792031    0.0800
     37 H37        -4.5695    5.2824   55.8274 H       1  ZINC000487792031    0.0700
     38 H38        -2.6643    2.4860   52.7846 H       1  ZINC000487792031    0.4000
     39 H39        -3.9128    4.0558   50.8030 H       1  ZINC000487792031    0.0800
     40 H40        -2.4017    4.8668   51.2796 H       1  ZINC000487792031    0.0800
     41 H41        -0.2586    3.8937   50.7725 H       1  ZINC000487792031    0.1400
     42 H42         1.0226    2.3367   49.3591 H       1  ZINC000487792031    0.1400
     43 H43        -1.4514    1.4957   46.1172 H       1  ZINC000487792031    0.0800
     44 H44        -0.2847    2.2907   45.0332 H       1  ZINC000487792031    0.0800
     45 H45         0.0276    0.1588   43.8059 H       1  ZINC000487792031    0.0600
     46 H46        -1.1390   -0.6361   44.8899 H       1  ZINC000487792031    0.0600
     47 H47        -1.6808    0.6581   43.7947 H       1  ZINC000487792031    0.0700
     48 H48         2.5582    0.3069   46.3327 H       1  ZINC000487792031    0.0900
     49 H49         1.9835    1.0814   44.8366 H       1  ZINC000487792031    0.0900
     50 H50         1.7738    3.2418   46.0355 H       1  ZINC000487792031    0.0600
     51 H51         2.3485    2.4673   47.5316 H       1  ZINC000487792031    0.0600
     52 H52         3.4376    2.6166   46.1316 H       1  ZINC000487792031    0.0700
     53 H53        -2.5756    0.2698   48.3741 H       1  ZINC000487792031    0.1400
     54 H54        -3.8564    1.8244   49.7904 H       1  ZINC000487792031    0.1400
     55 H55        -2.5639    1.5734   56.3688 H       1  ZINC000487792031    0.1200
     56 H56        -0.4054    1.7529   57.5401 H       1  ZINC000487792031    0.1200
     57 H57         0.8624    3.8626   57.4689 H       1  ZINC000487792031    0.1200
     58 H58        -0.0281    5.7926   56.2256 H       1  ZINC000487792031    0.1200
     59 H59        -2.1843    5.6116   55.0503 H       1  ZINC000487792031    0.1200
@<TRIPOS>BOND
     1     1     2    2
     2     1    31    1
     3     1    32    1
     4     2     3    1
     5     2    33    1
     6     3     4    1
     7     3    34    1
     8     3    35    1
     9     4     5    1
    10     4    36    1
    11     4    37    1
    12     5     6    1
    13     5     7    1
    14     5    25    1
    15     7     8    2
    16     7     9   am
    17     9    10    1
    18     9    38    1
    19    10    11    1
    20    10    39    1
    21    10    40    1
    22    11    24   ar
    23    11    12   ar
    24    12    13   ar
    25    12    41    1
    26    13    14   ar
    27    13    42    1
    28    14    15    1
    29    14    23   ar
    30    15    16    2
    31    15    17    2
    32    15    18   am
    33    18    19    1
    34    18    21    1
    35    19    20    1
    36    19    43    1
    37    19    44    1
    38    20    45    1
    39    20    46    1
    40    20    47    1
    41    21    22    1
    42    21    48    1
    43    21    49    1
    44    22    50    1
    45    22    51    1
    46    22    52    1
    47    23    24   ar
    48    23    53    1
    49    24    54    1
    50    25    30   ar
    51    25    26   ar
    52    26    27   ar
    53    26    55    1
    54    27    28   ar
    55    27    56    1
    56    28    29   ar
    57    28    57    1
    58    29    30   ar
    59    29    58    1
    60    30    59    1
@<TRIPOS>SUBSTRUCTURE
     1 ZINC000487792031        1 TEMP              0 ****  ****    0 ROOT


##########                                Name:    ZINC000150894060
##########                DOCK_Rotatable_Bonds:                  10
##########                         Heavy_Atoms:                  27
##########                    Molecular_Weight:              366.42
##########                DOCK_Rotatable_Bonds:                  10
##########                       Formal_Charge:        -6.70552e-07
##########                     HBond_Acceptors:                   7
##########                        HBond_Donors:                   2
##########                         Heavy_Atoms:                  27
##########                          Grid_Score:          -35.903618
##########                     Grid_vdw_energy:          -34.329403
##########                      Grid_es_energy:           -1.574215
##########           Internal_energy_repulsive:           15.820478

@<TRIPOS>MOLECULE
ZINC000150894060
 49 51 1 0 0
SMALL
USER_CHARGES


@<TRIPOS>ATOM
      1 C1         -4.5249    3.7767   57.0589 C.3     1  ZINC000150894060   -0.1000
      2 C2         -5.7672    2.9249   57.0088 C.2     1  ZINC000150894060   -0.0800
      3 C3         -6.4548    2.5514   55.8898 C.2     1  ZINC000150894060   -0.1000
      4 C4         -6.1145    2.9107   54.5092 C.2     1  ZINC000150894060    0.6100
      5 O5         -6.8783    2.6349   53.6029 O.2     1  ZINC000150894060   -0.5100
      6 N6         -4.9560    3.5463   54.2444 N.am    1  ZINC000150894060   -0.7200
      7 C7         -4.6168    3.9067   52.8655 C.3     1  ZINC000150894060    0.1200
      8 C8         -3.1132    4.1704   52.7623 C.3     1  ZINC000150894060   -0.1500
      9 C9         -2.8108    4.8903   51.4466 C.3     1  ZINC000150894060    0.1200
     10 N10        -2.7096    3.9078   50.3645 N.am    1  ZINC000150894060   -0.7300
     11 C11        -2.0033    4.1986   49.2541 C.2     1  ZINC000150894060    0.5600
     12 O12        -1.4490    5.2755   49.1511 O.2     1  ZINC000150894060   -0.5300
     13 C13        -1.9026    3.2078   48.1615 C.ar    1  ZINC000150894060   -0.1300
     14 C14        -2.0596    1.8476   48.4321 C.ar    1  ZINC000150894060   -0.0900
     15 C15        -1.9651    0.9282   47.4077 C.ar    1  ZINC000150894060   -0.0900
     16 C16        -1.7146    1.3519   46.1146 C.ar    1  ZINC000150894060   -0.0800
     17 C17        -1.6120    0.3420   45.0009 C.3     1  ZINC000150894060    0.1700
     18 N18        -0.3146    0.4801   44.3346 N.pl3   1  ZINC000150894060   -0.3700
     19 C19        -0.0456    0.1716   43.0487 C.2     1  ZINC000150894060    0.0500
     20 C20         1.2612    0.4418   42.8243 C.2     1  ZINC000150894060   -0.2700
     21 C21         1.8095    0.9325   44.0138 C.2     1  ZINC000150894060    0.0400
     22 N22         0.8644    0.9616   44.9181 N.2     1  ZINC000150894060   -0.2900
     23 C23        -1.5584    2.6989   45.8396 C.ar    1  ZINC000150894060   -0.1100
     24 C24        -1.6559    3.6291   46.8538 C.ar    1  ZINC000150894060   -0.0600
     25 O25        -7.5020    1.7940   56.2768 O.3     1  ZINC000150894060   -0.1700
     26 C26        -7.4972    1.6770   57.6109 C.2     1  ZINC000150894060    0.0000
     27 C27        -6.4381    2.3569   58.1031 C.2     1  ZINC000150894060   -0.2300
     28 H28        -3.6439    3.1385   56.9901 H       1  ZINC000150894060    0.0800
     29 H29        -4.5315    4.4781   56.2246 H       1  ZINC000150894060    0.0900
     30 H30        -4.5009    4.3293   57.9981 H       1  ZINC000150894060    0.0700
     31 H31        -4.3466    3.7651   54.9667 H       1  ZINC000150894060    0.4100
     32 H32        -4.8888    3.0886   52.1987 H       1  ZINC000150894060    0.0800
     33 H33        -5.1637    4.8053   52.5799 H       1  ZINC000150894060    0.0800
     34 H34        -2.7953    4.7931   53.5985 H       1  ZINC000150894060    0.0800
     35 H35        -2.5754    3.2227   52.7900 H       1  ZINC000150894060    0.0800
     36 H36        -3.6131    5.5939   51.2246 H       1  ZINC000150894060    0.0800
     37 H37        -1.8683    5.4304   51.5362 H       1  ZINC000150894060    0.0800
     38 H38        -3.1509    3.0480   50.4472 H       1  ZINC000150894060    0.4000
     39 H39        -2.2544    1.5154   49.4410 H       1  ZINC000150894060    0.1300
     40 H40        -2.0863   -0.1246   47.6158 H       1  ZINC000150894060    0.1300
     41 H41        -1.7040   -0.6632   45.4122 H       1  ZINC000150894060    0.1100
     42 H42        -2.4110    0.5140   44.2797 H       1  ZINC000150894060    0.1000
     43 H43        -0.7476   -0.2212   42.3280 H       1  ZINC000150894060    0.1700
     44 H44         1.7877    0.3028   41.8917 H       1  ZINC000150894060    0.1500
     45 H45         2.8349    1.2392   44.1592 H       1  ZINC000150894060    0.1800
     46 H46        -1.3634    3.0232   44.8281 H       1  ZINC000150894060    0.1300
     47 H47        -1.5341    4.6802   46.6377 H       1  ZINC000150894060    0.1400
     48 H48        -8.2185    1.1265   58.1966 H       1  ZINC000150894060    0.2100
     49 H49        -6.1634    2.4510   59.1433 H       1  ZINC000150894060    0.1600
@<TRIPOS>BOND
     1     1     2    1
     2     1    28    1
     3     1    29    1
     4     1    30    1
     5     2    27    1
     6     2     3    2
     7     3     4    1
     8     3    25    1
     9     4     5    2
    10     4     6   am
    11     6     7    1
    12     6    31    1
    13     7     8    1
    14     7    32    1
    15     7    33    1
    16     8     9    1
    17     8    34    1
    18     8    35    1
    19     9    10    1
    20     9    36    1
    21     9    37    1
    22    10    11   am
    23    10    38    1
    24    11    12    2
    25    11    13    1
    26    13    24   ar
    27    13    14   ar
    28    14    15   ar
    29    14    39    1
    30    15    16   ar
    31    15    40    1
    32    16    17    1
    33    16    23   ar
    34    17    18    1
    35    17    41    1
    36    17    42    1
    37    18    22    1
    38    18    19    1
    39    19    20    2
    40    19    43    1
    41    20    21    1
    42    20    44    1
    43    21    22    2
    44    21    45    1
    45    23    24   ar
    46    23    46    1
    47    24    47    1
    48    25    26    1
    49    26    27    2
    50    26    48    1
    51    27    49    1
@<TRIPOS>SUBSTRUCTURE
     1 ZINC000150894060        1 TEMP              0 ****  ****    0 ROOT


##########                                Name:    ZINC000809503567
##########                DOCK_Rotatable_Bonds:                   9
##########                         Heavy_Atoms:                  26
##########                    Molecular_Weight:             353.378
##########                DOCK_Rotatable_Bonds:                   9
##########                       Formal_Charge:          -0.0200002
##########                     HBond_Acceptors:                   7
##########                        HBond_Donors:                   1
##########                         Heavy_Atoms:                  26
##########                          Grid_Score:          -35.853699
##########                     Grid_vdw_energy:          -33.384731
##########                      Grid_es_energy:           -2.468967
##########           Internal_energy_repulsive:           11.513236

@<TRIPOS>MOLECULE
ZINC000809503567
 45 46 1 0 0
SMALL
USER_CHARGES


@<TRIPOS>ATOM
      1 C1         -0.9181    0.2798   44.1992 C.3     1  ZINC000809503567    0.0200
      2 O2         -0.9401   -0.2155   45.5395 O.3     1  ZINC000809503567   -0.3100
      3 C3         -1.1965    0.6826   46.5240 C.ar    1  ZINC000809503567    0.1900
      4 C4         -1.5883    1.9730   46.2043 C.ar    1  ZINC000809503567   -0.2100
      5 C5         -1.8490    2.8864   47.2074 C.ar    1  ZINC000809503567   -0.0200
      6 C6         -1.7211    2.5220   48.5373 C.ar    1  ZINC000809503567   -0.1500
      7 C7         -2.0081    3.5283   49.6217 C.3     1  ZINC000809503567    0.1700
      8 N8         -2.7703    2.8855   50.6951 N.am    1  ZINC000809503567   -0.7000
      9 C9         -3.5335    3.6306   51.5190 C.2     1  ZINC000809503567    0.5100
     10 O10        -3.5882    4.8339   51.3728 O.2     1  ZINC000809503567   -0.4900
     11 C11        -4.3125    2.9746   52.6128 C.2     1  ZINC000809503567    0.5100
     12 O12        -5.2959    2.3154   52.3462 O.2     1  ZINC000809503567   -0.5000
     13 N13        -3.9229    3.1151   53.8953 N.am    1  ZINC000809503567   -0.4600
     14 C14        -2.7346    3.9093   54.2171 C.3     1  ZINC000809503567    0.0800
     15 O15        -4.6619    2.4948   54.9318 O.3     1  ZINC000809503567   -0.1100
     16 C16        -5.6987    3.3136   55.4765 C.3     1  ZINC000809503567    0.0800
     17 C17        -6.3827    2.5771   56.5994 C.ar    1  ZINC000809503567   -0.0900
     18 C18        -7.4783    1.7769   56.3348 C.ar    1  ZINC000809503567   -0.1000
     19 C19        -8.1057    1.1013   57.3649 C.ar    1  ZINC000809503567   -0.1300
     20 C20        -7.6371    1.2256   58.6594 C.ar    1  ZINC000809503567   -0.1100
     21 C21        -6.5409    2.0252   58.9239 C.ar    1  ZINC000809503567   -0.1300
     22 C22        -5.9109    2.6974   57.8932 C.ar    1  ZINC000809503567   -0.0800
     23 C23        -1.3328    1.2426   48.8735 C.ar    1  ZINC000809503567   -0.0100
     24 C24        -1.0718    0.3076   47.8692 C.ar    1  ZINC000809503567   -0.0600
     25 C25        -0.6681   -1.0230   48.2113 C.1     1  ZINC000809503567    0.2600
     26 N26        -0.3478   -2.0786   48.4828 N.1     1  ZINC000809503567   -0.4100
     27 H27        -0.1463    1.0439   44.1068 H       1  ZINC000809503567    0.0600
     28 H28        -0.7027   -0.5391   43.5128 H       1  ZINC000809503567    0.1100
     29 H29        -1.8886    0.7122   43.9557 H       1  ZINC000809503567    0.0600
     30 H30        -1.6897    2.2652   45.1696 H       1  ZINC000809503567    0.1400
     31 H31        -2.1541    3.8907   46.9531 H       1  ZINC000809503567    0.1400
     32 H32        -1.0684    3.9096   50.0215 H       1  ZINC000809503567    0.0900
     33 H33        -2.5881    4.3531   49.2078 H       1  ZINC000809503567    0.0900
     34 H34        -2.7257    1.9237   50.8127 H       1  ZINC000809503567    0.4100
     35 H35        -3.0250    4.9468   54.3827 H       1  ZINC000809503567    0.0800
     36 H36        -2.2671    3.5146   55.1191 H       1  ZINC000809503567    0.0800
     37 H37        -2.0278    3.8575   53.3890 H       1  ZINC000809503567    0.0900
     38 H38        -5.2679    4.2392   55.8584 H       1  ZINC000809503567    0.0700
     39 H39        -6.4256    3.5453   54.6981 H       1  ZINC000809503567    0.0600
     40 H40        -7.8444    1.6797   55.3235 H       1  ZINC000809503567    0.1200
     41 H41        -8.9621    0.4766   57.1583 H       1  ZINC000809503567    0.1200
     42 H42        -8.1277    0.6985   59.4643 H       1  ZINC000809503567    0.1200
     43 H43        -6.1751    2.1227   59.9354 H       1  ZINC000809503567    0.1200
     44 H44        -5.0545    3.3221   58.0999 H       1  ZINC000809503567    0.1300
     45 H45        -1.2343    0.9626   49.9119 H       1  ZINC000809503567    0.1400
@<TRIPOS>BOND
     1     1     2    1
     2     1    27    1
     3     1    28    1
     4     1    29    1
     5     2     3    1
     6     3    24   ar
     7     3     4   ar
     8     4     5   ar
     9     4    30    1
    10     5     6   ar
    11     5    31    1
    12     6     7    1
    13     6    23   ar
    14     7     8    1
    15     7    32    1
    16     7    33    1
    17     8     9   am
    18     8    34    1
    19     9    10    2
    20     9    11    1
    21    11    12    2
    22    11    13   am
    23    13    14    1
    24    13    15    1
    25    14    35    1
    26    14    36    1
    27    14    37    1
    28    15    16    1
    29    16    17    1
    30    16    38    1
    31    16    39    1
    32    17    22   ar
    33    17    18   ar
    34    18    19   ar
    35    18    40    1
    36    19    20   ar
    37    19    41    1
    38    20    21   ar
    39    20    42    1
    40    21    22   ar
    41    21    43    1
    42    22    44    1
    43    23    24   ar
    44    23    45    1
    45    24    25    1
    46    25    26    3
@<TRIPOS>SUBSTRUCTURE
     1 ZINC000809503567        1 TEMP              0 ****  ****    0 ROOT


##########                                Name:    ZINC000486710336
##########                DOCK_Rotatable_Bonds:                   6
##########                         Heavy_Atoms:                  31
##########                    Molecular_Weight:             420.555
##########                DOCK_Rotatable_Bonds:                   6
##########                       Formal_Charge:         1.49012e-07
##########                     HBond_Acceptors:                   6
##########                        HBond_Donors:                   1
##########                         Heavy_Atoms:                  31
##########                          Grid_Score:          -35.784550
##########                     Grid_vdw_energy:          -35.181332
##########                      Grid_es_energy:           -0.603218
##########           Internal_energy_repulsive:           61.725792

@<TRIPOS>MOLECULE
ZINC000486710336
 63 67 1 0 0
SMALL
USER_CHARGES


@<TRIPOS>ATOM
      1 C1          1.7271    4.1816   50.4186 C.3     1  ZINC000486710336    0.1000
      2 N2          0.9042    3.1521   49.7790 N.pl3   1  ZINC000486710336   -0.3900
      3 N3          1.2318    2.4352   48.6212 N.2     1  ZINC000486710336   -0.2800
      4 C4          0.2541    1.6065   48.3573 C.2     1  ZINC000486710336    0.1000
      5 C5          0.2016    0.6469   47.1964 C.3     1  ZINC000486710336   -0.0100
      6 C6         -1.2669    0.3599   46.7965 C.3     1  ZINC000486710336   -0.1200
      7 C7         -1.1375   -0.0885   45.3195 C.3     1  ZINC000486710336   -0.1200
      8 C8         -0.0332    0.8217   44.7433 C.3     1  ZINC000486710336   -0.1200
      9 C9          0.8182    1.2893   45.9367 C.3     1  ZINC000486710336   -0.1100
     10 C10        -0.7330    1.7619   49.3335 C.2     1  ZINC000486710336   -0.2600
     11 C11        -0.3103    2.7184   50.2064 C.2     1  ZINC000486710336    0.3000
     12 N12        -0.9998    3.1735   51.3267 N.am    1  ZINC000486710336   -0.6200
     13 C13        -2.2620    3.6292   51.2020 C.2     1  ZINC000486710336    0.5100
     14 O14        -2.7971    3.6442   50.1124 O.2     1  ZINC000486710336   -0.4800
     15 C15        -3.0023    4.1157   52.4038 C.2     1  ZINC000486710336    0.5300
     16 O16        -4.1759    4.4117   52.3150 O.2     1  ZINC000486710336   -0.5100
     17 N17        -2.3672    4.2263   53.5875 N.am    1  ZINC000486710336   -0.5800
     18 C18        -0.9506    3.9096   53.8440 C.3     1  ZINC000486710336    0.1000
     19 C19        -0.6933    4.1567   55.3471 C.3     1  ZINC000486710336   -0.0600
     20 H20        -0.2837    5.1535   55.5104 H       1  ZINC000486710336    0.1000
     21 C21         0.2255    3.1043   55.9121 C.ar    1  ZINC000486710336   -0.0700
     22 C22         1.0202    2.3539   55.0658 C.ar    1  ZINC000486710336   -0.1100
     23 C23         1.8630    1.3886   55.5842 C.ar    1  ZINC000486710336   -0.1200
     24 C24         1.9115    1.1740   56.9489 C.ar    1  ZINC000486710336   -0.1200
     25 C25         1.1175    1.9250   57.7953 C.ar    1  ZINC000486710336   -0.1200
     26 C26         0.2778    2.8933   57.2773 C.ar    1  ZINC000486710336   -0.1100
     27 C27        -2.1215    4.0380   55.9623 C.3     1  ZINC000486710336   -0.0800
     28 H28        -2.2159    4.5616   56.9136 H       1  ZINC000486710336    0.1100
     29 C29        -2.4205    2.5426   56.0871 C.3     1  ZINC000486710336   -0.1100
     30 C30        -3.9164    2.3060   56.2807 C.3     1  ZINC000486710336   -0.1200
     31 C31        -4.6594    2.8272   55.0460 C.3     1  ZINC000486710336   -0.1100
     32 C32        -4.4361    4.3364   54.9490 C.3     1  ZINC000486710336   -0.1400
     33 C33        -2.9615    4.6883   54.8445 C.3     1  ZINC000486710336    0.1400
     34 H34        -2.8592    5.7726   54.8892 H       1  ZINC000486710336    0.0800
     35 H35         2.3896    3.7157   51.1481 H       1  ZINC000486710336    0.0800
     36 H36         2.3220    4.6931   49.6620 H       1  ZINC000486710336    0.1000
     37 H37         1.0820    4.9018   50.9216 H       1  ZINC000486710336    0.0800
     38 H38         0.7196   -0.2794   47.4448 H       1  ZINC000486710336    0.0900
     39 H39        -1.6844   -0.4403   47.4078 H       1  ZINC000486710336    0.0700
     40 H40        -1.8722    1.2630   46.8743 H       1  ZINC000486710336    0.0800
     41 H41        -0.8373   -1.1348   45.2633 H       1  ZINC000486710336    0.0700
     42 H42        -2.0768    0.0689   44.7894 H       1  ZINC000486710336    0.0700
     43 H43         0.5840    0.2612   44.0411 H       1  ZINC000486710336    0.0600
     44 H44        -0.4805    1.6812   44.2442 H       1  ZINC000486710336    0.0600
     45 H45         0.7841    2.3758   46.0167 H       1  ZINC000486710336    0.0700
     46 H46         1.8486    0.9558   45.8137 H       1  ZINC000486710336    0.0700
     47 H47        -1.6640    1.2174   49.3887 H       1  ZINC000486710336    0.1700
     48 H48        -0.5719    3.1626   52.1971 H       1  ZINC000486710336    0.4200
     49 H49        -0.7538    2.8655   53.6007 H       1  ZINC000486710336    0.0900
     50 H50        -0.3111    4.5592   53.2464 H       1  ZINC000486710336    0.0800
     51 H51         0.9822    2.5217   53.9996 H       1  ZINC000486710336    0.1200
     52 H52         2.4833    0.8020   54.9228 H       1  ZINC000486710336    0.1200
     53 H53         2.5695    0.4193   57.3537 H       1  ZINC000486710336    0.1200
     54 H54         1.1551    1.7570   58.8615 H       1  ZINC000486710336    0.1200
     55 H55        -0.3426    3.4800   57.9386 H       1  ZINC000486710336    0.1200
     56 H56        -2.0908    2.0337   55.1813 H       1  ZINC000486710336    0.0700
     57 H57        -1.8793    2.1384   56.9425 H       1  ZINC000486710336    0.0700
     58 H58        -4.1057    1.2390   56.3981 H       1  ZINC000486710336    0.0600
     59 H59        -4.2595    2.8404   57.1667 H       1  ZINC000486710336    0.0600
     60 H60        -4.2711    2.3406   54.1514 H       1  ZINC000486710336    0.0500
     61 H61        -5.7250    2.6196   55.1441 H       1  ZINC000486710336    0.0600
     62 H62        -4.9552    4.7185   54.0700 H       1  ZINC000486710336    0.1000
     63 H63        -4.8433    4.8156   55.8393 H       1  ZINC000486710336    0.0700
@<TRIPOS>BOND
     1     1     2    1
     2     1    35    1
     3     1    36    1
     4     1    37    1
     5     2    11    1
     6     2     3    1
     7     3     4    2
     8     4     5    1
     9     4    10    1
    10     5     9    1
    11     5     6    1
    12     5    38    1
    13     6     7    1
    14     6    39    1
    15     6    40    1
    16     7     8    1
    17     7    41    1
    18     7    42    1
    19     8     9    1
    20     8    43    1
    21     8    44    1
    22     9    45    1
    23     9    46    1
    24    10    11    2
    25    10    47    1
    26    11    12    1
    27    12    13   am
    28    12    48    1
    29    13    14    2
    30    13    15    1
    31    15    16    2
    32    15    17   am
    33    17    33    1
    34    17    18    1
    35    18    19    1
    36    18    49    1
    37    18    50    1
    38    19    20    1
    39    19    21    1
    40    19    27    1
    41    21    26   ar
    42    21    22   ar
    43    22    23   ar
    44    22    51    1
    45    23    24   ar
    46    23    52    1
    47    24    25   ar
    48    24    53    1
    49    25    26   ar
    50    25    54    1
    51    26    55    1
    52    27    28    1
    53    27    33    1
    54    27    29    1
    55    29    30    1
    56    29    56    1
    57    29    57    1
    58    30    31    1
    59    30    58    1
    60    30    59    1
    61    31    32    1
    62    31    60    1
    63    31    61    1
    64    32    33    1
    65    32    62    1
    66    32    63    1
    67    33    34    1
@<TRIPOS>SUBSTRUCTURE
     1 ZINC000486710336        1 TEMP              0 ****  ****    0 ROOT


##########                                Name:    ZINC000762020937
##########                DOCK_Rotatable_Bonds:                  10
##########                         Heavy_Atoms:                  28
##########                    Molecular_Weight:             391.467
##########                DOCK_Rotatable_Bonds:                  10
##########                       Formal_Charge:         -1.8999e-07
##########                     HBond_Acceptors:                   8
##########                        HBond_Donors:                   1
##########                         Heavy_Atoms:                  28
##########                          Grid_Score:          -35.650070
##########                     Grid_vdw_energy:          -36.019108
##########                      Grid_es_energy:            0.369039
##########           Internal_energy_repulsive:           41.740761

@<TRIPOS>MOLECULE
ZINC000762020937
 57 58 1 0 0
SMALL
USER_CHARGES


@<TRIPOS>ATOM
      1 C1         -1.0216    0.6613   44.5696 C.3     1  ZINC000762020937    0.0200
      2 O2         -2.0634    0.8738   45.5245 O.3     1  ZINC000762020937   -0.3000
      3 C3         -1.7796    1.6864   46.5773 C.ar    1  ZINC000762020937    0.1100
      4 C4         -1.6358    3.0503   46.3824 C.ar    1  ZINC000762020937   -0.1700
      5 C5         -1.3477    3.8753   47.4542 C.ar    1  ZINC000762020937   -0.1000
      6 C6         -1.2022    3.3423   48.7210 C.ar    1  ZINC000762020937   -0.1000
      7 C7         -0.8877    4.2459   49.8853 C.3     1  ZINC000762020937    0.0200
      8 C8         -2.1571    4.5605   50.6341 C.2     1  ZINC000762020937    0.1900
      9 N9         -2.6256    3.9227   51.6797 N.2     1  ZINC000762020937   -0.4700
     10 C10        -3.7700    4.5503   52.0038 C.2     1  ZINC000762020937    0.1600
     11 C11        -4.6905    4.1948   53.1428 C.3     1  ZINC000762020937    0.2600
     12 H12        -5.4614    4.9594   53.2393 H       1  ZINC000762020937    0.1200
     13 N13        -5.3192    2.8986   52.8763 N.am    1  ZINC000762020937   -0.7100
     14 C14        -6.6203    2.7072   53.1715 C.2     1  ZINC000762020937    0.6600
     15 O15        -7.2722    3.6102   53.6573 O.2     1  ZINC000762020937   -0.5600
     16 O16        -7.1975    1.5155   52.9279 O.3     1  ZINC000762020937   -0.3600
     17 C17        -8.6192    1.4037   53.2012 C.3     1  ZINC000762020937    0.1400
     18 C18        -8.8734    1.6499   54.6898 C.3     1  ZINC000762020937   -0.1800
     19 C19        -9.3806    2.4423   52.3752 C.3     1  ZINC000762020937   -0.1400
     20 C20        -9.1018    0.0009   52.8267 C.3     1  ZINC000762020937   -0.1800
     21 C21        -3.8867    4.1141   54.4421 C.3     1  ZINC000762020937   -0.1000
     22 C22        -4.7214    4.6774   55.5939 C.3     1  ZINC000762020937   -0.1400
     23 C23        -3.5342    2.6542   54.7341 C.3     1  ZINC000762020937   -0.1400
     24 N24        -3.9361    5.5199   51.1548 N.2     1  ZINC000762020937   -0.3700
     25 O25        -3.0175    5.5466   50.3630 O.3     1  ZINC000762020937    0.0900
     26 C26        -1.3449    1.9817   48.9225 C.ar    1  ZINC000762020937   -0.1500
     27 C27        -1.6387    1.1502   47.8541 C.ar    1  ZINC000762020937    0.1000
     28 O28        -1.7794   -0.1880   48.0506 O.3     1  ZINC000762020937   -0.3100
     29 C29        -0.5832   -0.9434   48.2522 C.3     1  ZINC000762020937    0.0200
     30 H30        -0.7294    1.6160   44.1323 H       1  ZINC000762020937    0.0600
     31 H31        -0.1616    0.2100   45.0645 H       1  ZINC000762020937    0.0600
     32 H32        -1.3792   -0.0041   43.7838 H       1  ZINC000762020937    0.1000
     33 H33        -1.7484    3.4693   45.3934 H       1  ZINC000762020937    0.1400
     34 H34        -1.2358    4.9386   47.3008 H       1  ZINC000762020937    0.1300
     35 H35        -0.1860    3.7466   50.5535 H       1  ZINC000762020937    0.1200
     36 H36        -0.4439    5.1712   49.5177 H       1  ZINC000762020937    0.1200
     37 H37        -4.7990    2.1781   52.4873 H       1  ZINC000762020937    0.4100
     38 H38        -8.5296    2.6493   54.9566 H       1  ZINC000762020937    0.0600
     39 H39        -9.9405    1.5659   54.8949 H       1  ZINC000762020937    0.0700
     40 H40        -8.3309    0.9099   55.2782 H       1  ZINC000762020937    0.0900
     41 H41        -9.1996    2.2669   51.3147 H       1  ZINC000762020937    0.0700
     42 H42       -10.4479    2.3584   52.5804 H       1  ZINC000762020937    0.0800
     43 H43        -9.0369    3.4417   52.6421 H       1  ZINC000762020937    0.0700
     44 H44        -8.5593   -0.7391   53.4151 H       1  ZINC000762020937    0.0900
     45 H45       -10.1689   -0.0831   53.0319 H       1  ZINC000762020937    0.0700
     46 H46        -8.9207   -0.1745   51.7663 H       1  ZINC000762020937    0.0600
     47 H47        -2.9704    4.6956   54.3392 H       1  ZINC000762020937    0.0800
     48 H48        -5.6376    4.0961   55.6969 H       1  ZINC000762020937    0.0600
     49 H49        -4.1488    4.6200   56.5197 H       1  ZINC000762020937    0.0600
     50 H50        -4.9725    5.7175   55.3860 H       1  ZINC000762020937    0.0500
     51 H51        -2.9395    2.2529   53.9134 H       1  ZINC000762020937    0.0500
     52 H52        -2.9615    2.5968   55.6597 H       1  ZINC000762020937    0.0600
     53 H53        -4.4504    2.0728   54.8370 H       1  ZINC000762020937    0.0700
     54 H54        -1.2307    1.5677   49.9134 H       1  ZINC000762020937    0.1400
     55 H55        -0.0626   -0.5709   49.1344 H       1  ZINC000762020937    0.0600
     56 H56        -0.8366   -1.9936   48.3962 H       1  ZINC000762020937    0.1000
     57 H57         0.0621   -0.8417   47.3796 H       1  ZINC000762020937    0.0600
@<TRIPOS>BOND
     1     1     2    1
     2     1    30    1
     3     1    31    1
     4     1    32    1
     5     2     3    1
     6     3    27   ar
     7     3     4   ar
     8     4     5   ar
     9     4    33    1
    10     5     6   ar
    11     5    34    1
    12     6     7    1
    13     6    26   ar
    14     7     8    1
    15     7    35    1
    16     7    36    1
    17     8    25    1
    18     8     9    2
    19     9    10    1
    20    10    11    1
    21    10    24    2
    22    11    12    1
    23    11    13    1
    24    11    21    1
    25    13    14   am
    26    13    37    1
    27    14    15    2
    28    14    16    1
    29    16    17    1
    30    17    18    1
    31    17    19    1
    32    17    20    1
    33    18    38    1
    34    18    39    1
    35    18    40    1
    36    19    41    1
    37    19    42    1
    38    19    43    1
    39    20    44    1
    40    20    45    1
    41    20    46    1
    42    21    22    1
    43    21    23    1
    44    21    47    1
    45    22    48    1
    46    22    49    1
    47    22    50    1
    48    23    51    1
    49    23    52    1
    50    23    53    1
    51    24    25    1
    52    26    27   ar
    53    26    54    1
    54    27    28    1
    55    28    29    1
    56    29    55    1
    57    29    56    1
    58    29    57    1
@<TRIPOS>SUBSTRUCTURE
     1 ZINC000762020937        1 TEMP              0 ****  ****    0 ROOT


##########                                Name:    ZINC000603906271
##########                DOCK_Rotatable_Bonds:                   8
##########                         Heavy_Atoms:                  29
##########                    Molecular_Weight:             391.473
##########                DOCK_Rotatable_Bonds:                   8
##########                       Formal_Charge:           0.0499998
##########                     HBond_Acceptors:                   7
##########                        HBond_Donors:                   3
##########                         Heavy_Atoms:                  29
##########                          Grid_Score:          -35.617939
##########                     Grid_vdw_energy:          -35.379868
##########                      Grid_es_energy:           -0.238072
##########           Internal_energy_repulsive:           18.638218

@<TRIPOS>MOLECULE
ZINC000603906271
 54 56 1 0 0
SMALL
USER_CHARGES


@<TRIPOS>ATOM
      1 C1         -2.8207    6.1493   49.9676 C.3     1  ZINC000603906271   -0.1600
      2 C2         -2.4397    4.8989   50.7626 C.3     1  ZINC000603906271    0.1300
      3 H3         -1.5092    5.0801   51.3008 H       1  ZINC000603906271    0.1200
      4 N4         -3.5039    4.5854   51.7194 N.am    1  ZINC000603906271   -0.7100
      5 C5         -3.1931    4.1057   52.9400 C.2     1  ZINC000603906271    0.5700
      6 O6         -2.0298    3.9316   53.2463 O.2     1  ZINC000603906271   -0.5300
      7 C7         -4.2670    3.7909   53.9061 C.ar    1  ZINC000603906271   -0.1400
      8 C8         -5.5714    4.2285   53.6711 C.ar    1  ZINC000603906271   -0.0800
      9 C9         -6.5690    3.9311   54.5764 C.ar    1  ZINC000603906271   -0.1200
     10 C10        -6.2786    3.2012   55.7155 C.ar    1  ZINC000603906271   -0.0400
     11 C11        -7.3733    2.8805   56.7003 C.3     1  ZINC000603906271   -0.0400
     12 C12        -8.4907    2.1145   55.9892 C.3     1  ZINC000603906271   -0.1400
     13 C13        -6.8057    2.0210   57.8316 C.3     1  ZINC000603906271   -0.1500
     14 C14        -7.9349    4.1803   57.2798 C.3     1  ZINC000603906271   -0.1400
     15 C15        -4.9877    2.7642   55.9541 C.ar    1  ZINC000603906271   -0.1300
     16 C16        -3.9820    3.0502   55.0542 C.ar    1  ZINC000603906271   -0.0500
     17 C17        -2.2559    3.7394   49.8178 C.2     1  ZINC000603906271    0.5100
     18 O18        -2.8536    2.7013   50.0083 O.2     1  ZINC000603906271   -0.5100
     19 N19        -1.4276    3.8559   48.7611 N.am    1  ZINC000603906271   -0.6700
     20 C20        -1.2570    2.7791   47.8837 C.ar    1  ZINC000603906271    0.1300
     21 C21        -1.6489    2.8960   46.5560 C.ar    1  ZINC000603906271   -0.1200
     22 C22        -1.4820    1.8346   45.6865 C.ar    1  ZINC000603906271   -0.1000
     23 C23        -0.9255    0.6526   46.1324 C.ar    1  ZINC000603906271   -0.0900
     24 C24        -0.5300    0.5264   47.4630 C.ar    1  ZINC000603906271    0.0000
     25 C25         0.0679   -0.7438   47.9441 C.2     1  ZINC000603906271    0.2700
     26 N26        -0.5925   -1.8492   48.2108 N.2     1  ZINC000603906271   -0.3000
     27 N27         0.3561   -2.7944   48.6338 N.pl3   1  ZINC000603906271   -0.4800
     28 C28         1.5524   -2.1805   48.5924 C.2     1  ZINC000603906271    0.2700
     29 N29         1.3708   -0.9561   48.1733 N.2     1  ZINC000603906271   -0.5300
     30 C30        -0.6915    1.5970   48.3379 C.ar    1  ZINC000603906271   -0.0800
     31 H31        -3.7511    5.9682   49.4295 H       1  ZINC000603906271    0.0700
     32 H32        -2.9535    6.9880   50.6510 H       1  ZINC000603906271    0.0800
     33 H33        -2.0288    6.3825   49.2558 H       1  ZINC000603906271    0.0700
     34 H34        -4.4323    4.7231   51.4744 H       1  ZINC000603906271    0.4100
     35 H35        -5.7993    4.7988   52.7828 H       1  ZINC000603906271    0.1300
     36 H36        -7.5788    4.2690   54.3959 H       1  ZINC000603906271    0.1300
     37 H37        -8.0906    1.1885   55.5763 H       1  ZINC000603906271    0.0600
     38 H38        -9.2825    1.8825   56.7015 H       1  ZINC000603906271    0.0600
     39 H39        -8.8950    2.7269   55.1832 H       1  ZINC000603906271    0.0600
     40 H40        -6.0097    2.5666   58.3383 H       1  ZINC000603906271    0.0600
     41 H41        -7.5976    1.7890   58.5439 H       1  ZINC000603906271    0.0600
     42 H42        -6.4057    1.0949   57.4188 H       1  ZINC000603906271    0.0600
     43 H43        -8.3392    4.7927   56.4738 H       1  ZINC000603906271    0.0600
     44 H44        -8.7266    3.9484   57.9921 H       1  ZINC000603906271    0.0600
     45 H45        -7.1389    4.7261   57.7864 H       1  ZINC000603906271    0.0600
     46 H46        -4.7678    2.1946   56.8450 H       1  ZINC000603906271    0.1400
     47 H47        -2.9748    2.7081   55.2414 H       1  ZINC000603906271    0.1400
     48 H48        -0.9497    4.6861   48.6087 H       1  ZINC000603906271    0.4200
     49 H49        -2.0854    3.8184   46.2024 H       1  ZINC000603906271    0.1300
     50 H50        -1.7882    1.9302   44.6552 H       1  ZINC000603906271    0.1400
     51 H51        -0.7970   -0.1748   45.4503 H       1  ZINC000603906271    0.1400
     52 H52         0.1827   -3.7100   48.9030 H       1  ZINC000603906271    0.4400
     53 H53         2.5009   -2.6248   48.8559 H       1  ZINC000603906271    0.2300
     54 H54        -0.3865    1.5040   49.3697 H       1  ZINC000603906271    0.1500
@<TRIPOS>BOND
     1     1     2    1
     2     1    31    1
     3     1    32    1
     4     1    33    1
     5     2     3    1
     6     2     4    1
     7     2    17    1
     8     4     5   am
     9     4    34    1
    10     5     6    2
    11     5     7    1
    12     7    16   ar
    13     7     8   ar
    14     8     9   ar
    15     8    35    1
    16     9    10   ar
    17     9    36    1
    18    10    11    1
    19    10    15   ar
    20    11    12    1
    21    11    13    1
    22    11    14    1
    23    12    37    1
    24    12    38    1
    25    12    39    1
    26    13    40    1
    27    13    41    1
    28    13    42    1
    29    14    43    1
    30    14    44    1
    31    14    45    1
    32    15    16   ar
    33    15    46    1
    34    16    47    1
    35    17    18    2
    36    17    19   am
    37    19    20    1
    38    19    48    1
    39    20    30   ar
    40    20    21   ar
    41    21    22   ar
    42    21    49    1
    43    22    23   ar
    44    22    50    1
    45    23    24   ar
    46    23    51    1
    47    24    25    1
    48    24    30   ar
    49    25    29    1
    50    25    26    2
    51    26    27    1
    52    27    28    1
    53    27    52    1
    54    28    29    2
    55    28    53    1
    56    30    54    1
@<TRIPOS>SUBSTRUCTURE
     1 ZINC000603906271        1 TEMP              0 ****  ****    0 ROOT


##########                                Name:    ZINC000533131987
##########                DOCK_Rotatable_Bonds:                  11
##########                         Heavy_Atoms:                  30
##########                    Molecular_Weight:             419.403
##########                DOCK_Rotatable_Bonds:                  11
##########                       Formal_Charge:                0.01
##########                     HBond_Acceptors:                   9
##########                        HBond_Donors:                   3
##########                         Heavy_Atoms:                  30
##########                          Grid_Score:          -35.493340
##########                     Grid_vdw_energy:          -33.924686
##########                      Grid_es_energy:           -1.568653
##########           Internal_energy_repulsive:           27.381580

@<TRIPOS>MOLECULE
ZINC000533131987
 50 52 1 0 0
SMALL
USER_CHARGES


@<TRIPOS>ATOM
      1 O1         -1.2207    3.8335   51.4928 O.2     1  ZINC000533131987   -0.5700
      2 C2         -2.4347    3.8250   51.4253 C.2     1  ZINC000533131987    0.7100
      3 N3         -3.1716    3.7473   52.5511 N.am    1  ZINC000533131987   -0.7400
      4 C4         -2.5099    3.6672   53.8556 C.3     1  ZINC000533131987    0.1400
      5 C5         -3.4424    2.9865   54.8595 C.3     1  ZINC000533131987   -0.0900
      6 H6         -3.9329    2.1380   54.3823 H       1  ZINC000533131987    0.0900
      7 C7         -2.6296    2.4969   56.0597 C.3     1  ZINC000533131987    0.0800
      8 O8         -3.0178    1.1605   56.3846 O.3     1  ZINC000533131987   -0.5600
      9 C9         -4.4994    3.9863   55.3331 C.3     1  ZINC000533131987   -0.0900
     10 C10        -5.5596    3.2610   56.1211 C.ar    1  ZINC000533131987    0.0000
     11 C11        -5.3701    3.0106   57.4671 C.ar    1  ZINC000533131987   -0.1100
     12 C12        -6.3427    2.3450   58.1900 C.ar    1  ZINC000533131987   -0.0800
     13 C13        -7.5047    1.9306   57.5669 C.ar    1  ZINC000533131987   -0.1300
     14 C14        -7.6946    2.1818   56.2206 C.ar    1  ZINC000533131987   -0.0700
     15 C15        -6.7242    2.8509   55.4989 C.ar    1  ZINC000533131987   -0.1700
     16 C16        -6.9312    3.1248   54.0315 C.3     1  ZINC000533131987    0.5100
     17 F17        -7.0996    4.4993   53.8330 F       1  ZINC000533131987   -0.1800
     18 F18        -5.8152    2.6830   53.3126 F       1  ZINC000533131987   -0.1700
     19 F19        -8.0709    2.4462   53.5867 F       1  ZINC000533131987   -0.1800
     20 N20        -3.0433    3.8986   50.2251 N.am    1  ZINC000533131987   -0.6900
     21 C21        -2.2780    3.9793   49.0560 C.ar    1  ZINC000533131987    0.1600
     22 C22        -1.5646    5.1371   48.7712 C.ar    1  ZINC000533131987   -0.1000
     23 C23        -0.8072    5.2218   47.6177 C.ar    1  ZINC000533131987   -0.1000
     24 C24        -0.7546    4.1571   46.7417 C.ar    1  ZINC000533131987   -0.1000
     25 C25        -1.4679    2.9893   47.0188 C.ar    1  ZINC000533131987    0.0000
     26 C26        -1.4131    1.8468   46.0822 C.2     1  ZINC000533131987    0.2300
     27 N27        -1.1969    1.9249   44.7903 N.2     1  ZINC000533131987   -0.4700
     28 C28        -1.2179    0.6859   44.2762 C.2     1  ZINC000533131987   -0.0400
     29 C29        -1.4539   -0.1744   45.2835 C.2     1  ZINC000533131987   -0.0700
     30 O30        -1.5705    0.5531   46.4120 O.3     1  ZINC000533131987   -0.2000
     31 C31        -2.2273    2.9019   48.1851 C.ar    1  ZINC000533131987   -0.1000
     32 H32        -4.1401    3.7445   52.4975 H       1  ZINC000533131987    0.4000
     33 H33        -1.5914    3.0878   53.7622 H       1  ZINC000533131987    0.0700
     34 H34        -2.2717    4.6720   54.2046 H       1  ZINC000533131987    0.0800
     35 H35        -1.5683    2.5169   55.8123 H       1  ZINC000533131987    0.0400
     36 H36        -2.8158    3.1472   56.9144 H       1  ZINC000533131987    0.0600
     37 H37        -2.5687    0.7981   57.1607 H       1  ZINC000533131987    0.3800
     38 H38        -4.0293    4.7401   55.9647 H       1  ZINC000533131987    0.0800
     39 H39        -4.9556    4.4693   54.4690 H       1  ZINC000533131987    0.0900
     40 H40        -4.4621    3.3345   57.9540 H       1  ZINC000533131987    0.1300
     41 H41        -6.1943    2.1488   59.2417 H       1  ZINC000533131987    0.1300
     42 H42        -8.2642    1.4100   58.1314 H       1  ZINC000533131987    0.1300
     43 H43        -8.6024    1.8576   55.7336 H       1  ZINC000533131987    0.1300
     44 H44        -4.0119    3.8959   50.1715 H       1  ZINC000533131987    0.4100
     45 H45        -1.6022    5.9738   49.4530 H       1  ZINC000533131987    0.1500
     46 H46        -0.2550    6.1244   47.4015 H       1  ZINC000533131987    0.1400
     47 H47        -0.1621    4.2272   45.8414 H       1  ZINC000533131987    0.1300
     48 H48        -1.0715    0.4253   43.2383 H       1  ZINC000533131987    0.1900
     49 H49        -1.5314   -1.2486   45.2033 H       1  ZINC000533131987    0.2200
     50 H50        -2.7811    2.0011   48.4048 H       1  ZINC000533131987    0.1400
@<TRIPOS>BOND
     1     1     2    2
     2     2     3   am
     3     2    20   am
     4     3     4    1
     5     3    32    1
     6     4     5    1
     7     4    33    1
     8     4    34    1
     9     5     6    1
    10     5     7    1
    11     5     9    1
    12     7     8    1
    13     7    35    1
    14     7    36    1
    15     8    37    1
    16     9    10    1
    17     9    38    1
    18     9    39    1
    19    10    15   ar
    20    10    11   ar
    21    11    12   ar
    22    11    40    1
    23    12    13   ar
    24    12    41    1
    25    13    14   ar
    26    13    42    1
    27    14    15   ar
    28    14    43    1
    29    15    16    1
    30    16    17    1
    31    16    18    1
    32    16    19    1
    33    20    21    1
    34    20    44    1
    35    21    31   ar
    36    21    22   ar
    37    22    23   ar
    38    22    45    1
    39    23    24   ar
    40    23    46    1
    41    24    25   ar
    42    24    47    1
    43    25    26    1
    44    25    31   ar
    45    26    30    1
    46    26    27    2
    47    27    28    1
    48    28    29    2
    49    28    48    1
    50    29    30    1
    51    29    49    1
    52    31    50    1
@<TRIPOS>SUBSTRUCTURE
     1 ZINC000533131987        1 TEMP              0 ****  ****    0 ROOT


##########                                Name:    ZINC000668548901
##########                DOCK_Rotatable_Bonds:                   9
##########                         Heavy_Atoms:                  26
##########                    Molecular_Weight:             374.464
##########                DOCK_Rotatable_Bonds:                   9
##########                       Formal_Charge:         3.53903e-07
##########                     HBond_Acceptors:                   8
##########                        HBond_Donors:                   3
##########                         Heavy_Atoms:                  26
##########                          Grid_Score:          -35.446243
##########                     Grid_vdw_energy:          -34.156368
##########                      Grid_es_energy:           -1.289877
##########           Internal_energy_repulsive:           14.772422

@<TRIPOS>MOLECULE
ZINC000668548901
 48 50 1 0 0
SMALL
USER_CHARGES


@<TRIPOS>ATOM
      1 O1         -1.8811    3.7137   52.4048 O.2     1  ZINC000668548901   -0.5700
      2 C2         -3.0225    3.3098   52.2940 C.2     1  ZINC000668548901    0.7100
      3 N3         -3.5018    2.9686   51.0814 N.am    1  ZINC000668548901   -0.6800
      4 C4         -2.6898    3.0843   49.9522 C.ar    1  ZINC000668548901    0.2200
      5 C5         -2.0093    4.2721   49.6793 C.ar    1  ZINC000668548901   -0.1700
      6 C6         -1.2161    4.3506   48.5547 C.ar    1  ZINC000668548901    0.1200
      7 N7         -1.0938    3.3212   47.7374 N.ar    1  ZINC000668548901   -0.4300
      8 C8         -1.7221    2.1751   47.9590 C.ar    1  ZINC000668548901    0.1100
      9 S9         -1.5184    0.8366   46.8313 S.3     1  ZINC000668548901    0.0900
     10 C10        -0.2738   -0.1445   47.6014 C.ar    1  ZINC000668548901    0.0900
     11 C11         0.9360    0.4378   47.9653 C.ar    1  ZINC000668548901   -0.1500
     12 C12         1.9042   -0.3442   48.5695 C.ar    1  ZINC000668548901   -0.0700
     13 C13         1.6287   -1.6871   48.7902 C.ar    1  ZINC000668548901   -0.1700
     14 C14         0.4061   -2.1994   48.4032 C.ar    1  ZINC000668548901    0.1000
     15 N15        -0.5005   -1.4289   47.8335 N.ar    1  ZINC000668548901   -0.4200
     16 C16        -2.5342    2.0169   49.0740 C.ar    1  ZINC000668548901   -0.1800
     17 N17        -3.8067    3.1981   53.3844 N.am    1  ZINC000668548901   -0.7200
     18 C18        -3.2856    3.5689   54.7024 C.3     1  ZINC000668548901    0.1700
     19 H19        -2.5085    4.3244   54.5865 H       1  ZINC000668548901    0.1000
     20 C20        -2.6971    2.3323   55.3846 C.3     1  ZINC000668548901    0.0600
     21 O21        -1.3673    2.1136   54.9093 O.3     1  ZINC000668548901   -0.5700
     22 C22        -4.4210    4.1324   55.5595 C.3     1  ZINC000668548901   -0.1300
     23 H23        -4.9967    4.8502   54.9751 H       1  ZINC000668548901    0.1000
     24 C24        -3.8351    4.8282   56.7919 C.3     1  ZINC000668548901   -0.1200
     25 C25        -4.9819    5.3196   57.6806 C.3     1  ZINC000668548901   -0.1600
     26 C26        -5.8735    4.1320   58.0528 C.3     1  ZINC000668548901    0.0600
     27 O27        -6.3602    3.5116   56.8610 O.3     1  ZINC000668548901   -0.3800
     28 C28        -5.3351    2.9909   56.0123 C.3     1  ZINC000668548901    0.0700
     29 H29        -4.4111    2.6425   50.9936 H       1  ZINC000668548901    0.4100
     30 H30        -2.1035    5.1200   50.3416 H       1  ZINC000668548901    0.1500
     31 H31        -0.6874    5.2674   48.3391 H       1  ZINC000668548901    0.1600
     32 H32         1.1172    1.4859   47.7785 H       1  ZINC000668548901    0.1400
     33 H33         2.8531    0.0802   48.8626 H       1  ZINC000668548901    0.1400
     34 H34         2.3634   -2.3247   49.2593 H       1  ZINC000668548901    0.1400
     35 H35         0.1879   -3.2435   48.5726 H       1  ZINC000668548901    0.1600
     36 H36        -3.0448    1.0820   49.2520 H       1  ZINC000668548901    0.1400
     37 H37        -4.7160    2.8720   53.2965 H       1  ZINC000668548901    0.4000
     38 H38        -2.6765    2.4877   56.4633 H       1  ZINC000668548901    0.0500
     39 H39        -3.3128    1.4628   55.1545 H       1  ZINC000668548901    0.0600
     40 H40        -0.9319    1.3434   55.2996 H       1  ZINC000668548901    0.3800
     41 H41        -3.2178    4.1237   57.3495 H       1  ZINC000668548901    0.0700
     42 H42        -3.2281    5.6771   56.4772 H       1  ZINC000668548901    0.0700
     43 H43        -4.5742    5.7672   58.5871 H       1  ZINC000668548901    0.0800
     44 H44        -5.5698    6.0611   57.1398 H       1  ZINC000668548901    0.0700
     45 H45        -5.2951    3.4096   58.6286 H       1  ZINC000668548901    0.0500
     46 H46        -6.7153    4.4827   58.6500 H       1  ZINC000668548901    0.1000
     47 H47        -5.7895    2.5195   55.1408 H       1  ZINC000668548901    0.1000
     48 H48        -4.7491    2.2534   56.5606 H       1  ZINC000668548901    0.0500
@<TRIPOS>BOND
     1     1     2    2
     2     2     3   am
     3     2    17   am
     4     3     4    1
     5     3    29    1
     6     4    16   ar
     7     4     5   ar
     8     5     6   ar
     9     5    30    1
    10     6     7   ar
    11     6    31    1
    12     7     8   ar
    13     8     9    1
    14     8    16   ar
    15     9    10    1
    16    10    15   ar
    17    10    11   ar
    18    11    12   ar
    19    11    32    1
    20    12    13   ar
    21    12    33    1
    22    13    14   ar
    23    13    34    1
    24    14    15   ar
    25    14    35    1
    26    16    36    1
    27    17    18    1
    28    17    37    1
    29    18    19    1
    30    18    20    1
    31    18    22    1
    32    20    21    1
    33    20    38    1
    34    20    39    1
    35    21    40    1
    36    22    23    1
    37    22    28    1
    38    22    24    1
    39    24    25    1
    40    24    41    1
    41    24    42    1
    42    25    26    1
    43    25    43    1
    44    25    44    1
    45    26    27    1
    46    26    45    1
    47    26    46    1
    48    27    28    1
    49    28    47    1
    50    28    48    1
@<TRIPOS>SUBSTRUCTURE
     1 ZINC000668548901        1 TEMP              0 ****  ****    0 ROOT


##########                                Name:    ZINC000195331548
##########                DOCK_Rotatable_Bonds:                   7
##########                         Heavy_Atoms:                  26
##########                    Molecular_Weight:             378.539
##########                DOCK_Rotatable_Bonds:                   7
##########                       Formal_Charge:          -0.0100004
##########                     HBond_Acceptors:                   7
##########                        HBond_Donors:                   2
##########                         Heavy_Atoms:                  26
##########                          Grid_Score:          -35.429050
##########                     Grid_vdw_energy:          -36.312428
##########                      Grid_es_energy:            0.883376
##########           Internal_energy_repulsive:           31.225439

@<TRIPOS>MOLECULE
ZINC000195331548
 56 58 1 0 0
SMALL
USER_CHARGES


@<TRIPOS>ATOM
      1 C1          2.6742    0.8828   56.4267 C.3     1  ZINC000195331548   -0.0800
      2 C2          1.8943    1.7379   55.4616 C.2     1  ZINC000195331548    0.0700
      3 C3          2.3538    2.0632   54.2495 C.2     1  ZINC000195331548   -0.2600
      4 S4          1.1347    3.0579   53.4565 S.3     1  ZINC000195331548    0.1100
      5 C5          0.1320    2.9445   54.8367 C.2     1  ZINC000195331548    0.0600
      6 C6         -1.2251    3.5858   54.9721 C.3     1  ZINC000195331548   -0.0100
      7 H7         -1.1274    4.5393   55.4910 H       1  ZINC000195331548    0.1100
      8 C8         -2.1497    2.6620   55.7696 C.3     1  ZINC000195331548   -0.1200
      9 C9         -3.5424    3.2932   55.8510 C.3     1  ZINC000195331548   -0.1100
     10 C10        -4.0709    3.5353   54.4353 C.3     1  ZINC000195331548    0.0500
     11 N11        -3.1519    4.4250   53.7139 N.3     1  ZINC000195331548   -0.5200
     12 C12        -3.6966    4.7906   52.3994 C.3     1  ZINC000195331548    0.0400
     13 C13        -3.5864    3.6135   51.4650 C.2     1  ZINC000195331548    0.5100
     14 O14        -4.2538    2.6203   51.6598 O.2     1  ZINC000195331548   -0.4400
     15 N15        -2.7459    3.6649   50.4127 N.am    1  ZINC000195331548   -0.7000
     16 C16        -2.6461    2.6115   49.5779 C.2     1  ZINC000195331548    0.6900
     17 O17        -3.3130    1.6146   49.7748 O.2     1  ZINC000195331548   -0.5300
     18 N18        -1.8068    2.6635   48.5246 N.am    1  ZINC000195331548   -0.7300
     19 C19        -1.6997    1.5191   47.6162 C.3     1  ZINC000195331548    0.1700
     20 H20        -2.6980    1.1769   47.3436 H       1  ZINC000195331548    0.0900
     21 C21        -0.9440    0.3850   48.3116 C.3     1  ZINC000195331548   -0.1300
     22 C22         0.4573    0.8653   48.6943 C.3     1  ZINC000195331548   -0.1200
     23 C23         1.2149    1.2846   47.4329 C.3     1  ZINC000195331548   -0.1200
     24 C24         0.4593    2.4188   46.7375 C.3     1  ZINC000195331548   -0.1100
     25 C25        -0.9421    1.9384   46.3548 C.3     1  ZINC000195331548   -0.1000
     26 H26        -0.8623    1.0870   45.6790 H       1  ZINC000195331548    0.0900
     27 C27        -1.6978    3.0726   45.6595 C.3     1  ZINC000195331548   -0.1500
     28 C28        -1.8207    3.8194   53.5819 C.3     1  ZINC000195331548    0.0600
     29 N29         0.7030    2.2258   55.7435 N.2     1  ZINC000195331548   -0.4700
     30 H30         2.4244   -0.1660   56.2668 H       1  ZINC000195331548    0.0800
     31 H31         3.7416    1.0310   56.2627 H       1  ZINC000195331548    0.0800
     32 H32         2.4210    1.1650   57.4487 H       1  ZINC000195331548    0.0800
     33 H33         3.3030    1.7657   53.8289 H       1  ZINC000195331548    0.1800
     34 H34        -2.2167    1.6949   55.2712 H       1  ZINC000195331548    0.0600
     35 H35        -1.7508    2.5268   56.7749 H       1  ZINC000195331548    0.0700
     36 H36        -4.2165    2.6205   56.3810 H       1  ZINC000195331548    0.0800
     37 H37        -3.4812    4.2422   56.3838 H       1  ZINC000195331548    0.0800
     38 H38        -5.0563    3.9979   54.4896 H       1  ZINC000195331548    0.0800
     39 H39        -4.1448    2.5844   53.9077 H       1  ZINC000195331548    0.0400
     40 H40        -3.1330    5.6307   51.9935 H       1  ZINC000195331548    0.1200
     41 H41        -4.7440    5.0732   52.5059 H       1  ZINC000195331548    0.0700
     42 H42        -2.2128    4.4599   50.2562 H       1  ZINC000195331548    0.4100
     43 H43        -1.2737    3.4586   48.3681 H       1  ZINC000195331548    0.4000
     44 H44        -0.8643   -0.4665   47.6357 H       1  ZINC000195331548    0.0700
     45 H45        -1.4837    0.0861   49.2102 H       1  ZINC000195331548    0.0700
     46 H46         0.9957    0.0572   49.1897 H       1  ZINC000195331548    0.0600
     47 H47         0.3776    1.7166   49.3702 H       1  ZINC000195331548    0.0600
     48 H48         2.2132    1.6268   47.7056 H       1  ZINC000195331548    0.0600
     49 H49         1.2946    0.4332   46.7570 H       1  ZINC000195331548    0.0600
     50 H50         0.3795    3.2702   47.4135 H       1  ZINC000195331548    0.0600
     51 H51         0.9989    2.7176   45.8388 H       1  ZINC000195331548    0.0700
     52 H52        -1.7775    3.9240   46.3353 H       1  ZINC000195331548    0.0500
     53 H53        -1.1580    3.3714   44.7608 H       1  ZINC000195331548    0.0600
     54 H54        -2.6961    2.7305   45.3868 H       1  ZINC000195331548    0.0600
     55 H55        -1.9052    2.8671   53.0583 H       1  ZINC000195331548    0.0400
     56 H56        -1.1719    4.4883   53.0165 H       1  ZINC000195331548    0.0900
@<TRIPOS>BOND
     1     1     2    1
     2     1    30    1
     3     1    31    1
     4     1    32    1
     5     2    29    1
     6     2     3    2
     7     3     4    1
     8     3    33    1
     9     4     5    1
    10     5     6    1
    11     5    29    2
    12     6     7    1
    13     6    28    1
    14     6     8    1
    15     8     9    1
    16     8    34    1
    17     8    35    1
    18     9    10    1
    19     9    36    1
    20     9    37    1
    21    10    11    1
    22    10    38    1
    23    10    39    1
    24    11    12    1
    25    11    28    1
    26    12    13    1
    27    12    40    1
    28    12    41    1
    29    13    14    2
    30    13    15   am
    31    15    16   am
    32    15    42    1
    33    16    17    2
    34    16    18   am
    35    18    19    1
    36    18    43    1
    37    19    20    1
    38    19    25    1
    39    19    21    1
    40    21    22    1
    41    21    44    1
    42    21    45    1
    43    22    23    1
    44    22    46    1
    45    22    47    1
    46    23    24    1
    47    23    48    1
    48    23    49    1
    49    24    25    1
    50    24    50    1
    51    24    51    1
    52    25    26    1
    53    25    27    1
    54    27    52    1
    55    27    53    1
    56    27    54    1
    57    28    55    1
    58    28    56    1
@<TRIPOS>SUBSTRUCTURE
     1 ZINC000195331548        1 TEMP              0 ****  ****    0 ROOT


##########                                Name:    ZINC000848949366
##########                DOCK_Rotatable_Bonds:                   8
##########                         Heavy_Atoms:                  25
##########                    Molecular_Weight:             368.773
##########                DOCK_Rotatable_Bonds:                   8
##########                       Formal_Charge:          0.00999947
##########                     HBond_Acceptors:                   9
##########                        HBond_Donors:                   3
##########                         Heavy_Atoms:                  25
##########                          Grid_Score:          -35.358990
##########                     Grid_vdw_energy:          -33.657288
##########                      Grid_es_energy:           -1.701703
##########           Internal_energy_repulsive:           17.872910

@<TRIPOS>MOLECULE
ZINC000848949366
 42 43 1 0 0
SMALL
USER_CHARGES


@<TRIPOS>ATOM
      1 C1         -0.6888    5.9250   45.9522 C.3     1  ZINC000848949366   -0.1500
      2 C2         -0.1014    4.9643   44.9164 C.3     1  ZINC000848949366    0.0600
      3 O3          0.1210    3.6891   45.5217 O.3     1  ZINC000848949366   -0.3500
      4 C4         -0.9552    2.8904   45.6807 C.2     1  ZINC000848949366    0.5400
      5 O5         -1.9908    3.1408   45.0929 O.2     1  ZINC000848949366   -0.4800
      6 C6         -0.8793    1.7621   46.5304 C.2     1  ZINC000848949366   -0.2300
      7 C7         -0.8730    0.5087   46.0278 C.2     1  ZINC000848949366    0.2000
      8 C8         -0.9478    0.3079   44.5361 C.3     1  ZINC000848949366    0.1000
      9 O9          0.3478    0.5892   43.9441 O.3     1  ZINC000848949366   -0.3500
     10 C10         0.5380    0.1913   42.6708 C.2     1  ZINC000848949366    0.5100
     11 O11        -0.3714   -0.3276   42.0540 O.2     1  ZINC000848949366   -0.4800
     12 C12         1.8487    0.3855   42.0263 C.ar    1  ZINC000848949366   -0.1600
     13 C13         2.0503   -0.0258   40.7058 C.ar    1  ZINC000848949366   -0.0300
     14 C14         3.2779    0.1583   40.1088 C.ar    1  ZINC000848949366   -0.1300
     15 C15         4.3162    0.7502   40.8122 C.ar    1  ZINC000848949366    0.0200
     16 Cl16        5.8583    0.9757   40.0477 Cl      1  ZINC000848949366   -0.0500
     17 C17         4.1300    1.1620   42.1187 C.ar    1  ZINC000848949366   -0.1500
     18 C18         2.8994    0.9894   42.7327 C.ar    1  ZINC000848949366    0.1900
     19 O19         2.7151    1.3928   44.0145 O.3     1  ZINC000848949366   -0.4700
     20 N20        -0.7992   -0.5797   46.8492 N.am    1  ZINC000848949366   -0.6400
     21 C21        -0.7294   -0.4992   48.1840 C.2     1  ZINC000848949366    0.7100
     22 O22        -0.6667   -1.5256   48.8323 O.2     1  ZINC000848949366   -0.5600
     23 N23        -0.7260    0.6825   48.8320 N.am    1  ZINC000848949366   -0.7100
     24 C24        -0.7961    1.9189   48.0352 C.3     1  ZINC000848949366    0.2000
     25 H25         0.0827    2.5197   48.2694 H       1  ZINC000848949366    0.0900
     26 C26        -2.0310    2.7014   48.4864 C.3     1  ZINC000848949366   -0.1700
     27 H27        -0.8585    6.8977   45.4905 H       1  ZINC000848949366    0.0800
     28 H28        -1.6346    5.5278   46.3209 H       1  ZINC000848949366    0.0700
     29 H29         0.0082    6.0339   46.7831 H       1  ZINC000848949366    0.0700
     30 H30        -0.7985    4.8554   44.0855 H       1  ZINC000848949366    0.0700
     31 H31         0.8443    5.3614   44.5477 H       1  ZINC000848949366    0.0700
     32 H32        -1.2289   -0.7233   44.3220 H       1  ZINC000848949366    0.1100
     33 H33        -1.6936    0.9825   44.1156 H       1  ZINC000848949366    0.1000
     34 H34         1.2448   -0.4878   40.1545 H       1  ZINC000848949366    0.1500
     35 H35         3.4326   -0.1599   39.0884 H       1  ZINC000848949366    0.1500
     36 H36         4.9432    1.6221   42.6603 H       1  ZINC000848949366    0.1500
     37 H37         1.8246    1.2293   44.3543 H       1  ZINC000848949366    0.4000
     38 H38        -0.7975   -1.4605   46.4430 H       1  ZINC000848949366    0.4300
     39 H39        -0.6752    0.7177   49.8000 H       1  ZINC000848949366    0.4400
     40 H40        -1.9426    2.9405   49.5461 H       1  ZINC000848949366    0.0700
     41 H41        -2.1069    3.6239   47.9108 H       1  ZINC000848949366    0.0700
     42 H42        -2.9236    2.0971   48.3235 H       1  ZINC000848949366    0.0700
@<TRIPOS>BOND
     1     1     2    1
     2     1    27    1
     3     1    28    1
     4     1    29    1
     5     2     3    1
     6     2    30    1
     7     2    31    1
     8     3     4    1
     9     4     5    2
    10     4     6    1
    11     6    24    1
    12     6     7    2
    13     7     8    1
    14     7    20    1
    15     8     9    1
    16     8    32    1
    17     8    33    1
    18     9    10    1
    19    10    11    2
    20    10    12    1
    21    12    18   ar
    22    12    13   ar
    23    13    14   ar
    24    13    34    1
    25    14    15   ar
    26    14    35    1
    27    15    16    1
    28    15    17   ar
    29    17    18   ar
    30    17    36    1
    31    18    19    1
    32    19    37    1
    33    20    21   am
    34    20    38    1
    35    21    22    2
    36    21    23   am
    37    23    24    1
    38    23    39    1
    39    24    25    1
    40    24    26    1
    41    26    40    1
    42    26    41    1
    43    26    42    1
@<TRIPOS>SUBSTRUCTURE
     1 ZINC000848949366        1 TEMP              0 ****  ****    0 ROOT


##########                                Name:    ZINC000058174787
##########                DOCK_Rotatable_Bonds:                   9
##########                         Heavy_Atoms:                  27
##########                    Molecular_Weight:             413.882
##########                DOCK_Rotatable_Bonds:                   9
##########                       Formal_Charge:           0.0200002
##########                     HBond_Acceptors:                  10
##########                        HBond_Donors:                   1
##########                         Heavy_Atoms:                  27
##########                          Grid_Score:          -35.305637
##########                     Grid_vdw_energy:          -33.853779
##########                      Grid_es_energy:           -1.451860
##########           Internal_energy_repulsive:            7.393552

@<TRIPOS>MOLECULE
ZINC000058174787
 47 48 1 0 0
SMALL
USER_CHARGES


@<TRIPOS>ATOM
      1 C1         -5.9477    3.8927   54.6347 C.3     1  ZINC000058174787   -0.0700
      2 C2         -4.4630    3.7784   54.4028 C.2     1  ZINC000058174787    0.2100
      3 N3         -3.7854    4.4128   53.4855 N.2     1  ZINC000058174787   -0.4200
      4 C4         -2.4921    4.0685   53.5734 C.2     1  ZINC000058174787   -0.5600
      5 S5         -1.1898    4.6646   52.5471 S.o2    1  ZINC000058174787    2.7400
      6 O6         -0.8933    5.9792   52.9981 O.2     1  ZINC000058174787   -0.9500
      7 O7         -0.2208    3.6272   52.4851 O.2     1  ZINC000058174787   -0.9600
      8 N8         -1.8043    4.8226   51.0174 N.am    1  ZINC000058174787   -1.1100
      9 C9         -2.3443    3.6525   50.3206 C.3     1  ZINC000058174787    0.1300
     10 C10        -1.3631    3.2084   49.2339 C.3     1  ZINC000058174787   -0.1200
     11 C11        -1.7623    1.8485   48.7219 C.2     1  ZINC000058174787    0.4700
     12 O12        -2.9268    1.5968   48.5202 O.2     1  ZINC000058174787   -0.5000
     13 O13        -0.8243    0.9167   48.4899 O.3     1  ZINC000058174787   -0.3300
     14 C14        -1.2395   -0.2700   47.7635 C.3     1  ZINC000058174787    0.0400
     15 H15        -2.2820   -0.4904   47.9931 H       1  ZINC000058174787    0.1200
     16 C16        -0.3644   -1.4543   48.1785 C.3     1  ZINC000058174787   -0.1700
     17 C17        -1.0912   -0.0302   46.2830 C.2     1  ZINC000058174787    0.4000
     18 O18        -1.5082   -0.8488   45.4915 O.2     1  ZINC000058174787   -0.4200
     19 C19        -0.4409    1.1968   45.7983 C.ar    1  ZINC000058174787   -0.1600
     20 C20        -1.2109    2.3183   45.4715 C.ar    1  ZINC000058174787   -0.0600
     21 C21        -0.5946    3.4646   45.0182 C.ar    1  ZINC000058174787   -0.1200
     22 C22         0.7840    3.5083   44.8860 C.ar    1  ZINC000058174787    0.0000
     23 Cl23        1.5516    4.9568   44.3150 Cl      1  ZINC000058174787   -0.0500
     24 C24         1.5529    2.4013   45.2078 C.ar    1  ZINC000058174787   -0.1200
     25 C25         0.9510    1.2499   45.6672 C.ar    1  ZINC000058174787   -0.0400
     26 C26        -2.3634    3.1871   54.5835 C.2     1  ZINC000058174787    0.0700
     27 N27        -3.6124    3.0068   55.1134 N.pl3   1  ZINC000058174787   -0.4500
     28 C28        -3.9627    2.1334   56.2362 C.3     1  ZINC000058174787    0.0600
     29 H29        -6.1439    4.6985   55.3421 H       1  ZINC000058174787    0.0900
     30 H30        -6.4475    4.1085   53.6904 H       1  ZINC000058174787    0.1000
     31 H31        -6.3255    2.9538   55.0396 H       1  ZINC000058174787    0.0800
     32 H32        -1.8068    5.6898   50.5830 H       1  ZINC000058174787    0.4200
     33 H33        -2.4895    2.8403   51.0329 H       1  ZINC000058174787    0.0900
     34 H34        -3.2999    3.9105   49.8639 H       1  ZINC000058174787    0.0900
     35 H35        -1.3811    3.9254   48.4130 H       1  ZINC000058174787    0.1200
     36 H36        -0.3572    3.1587   49.6508 H       1  ZINC000058174787    0.1200
     37 H37         0.6780   -1.2338   47.9488 H       1  ZINC000058174787    0.0800
     38 H38        -0.4718   -1.6277   49.2493 H       1  ZINC000058174787    0.0800
     39 H39        -0.6761   -2.3451   47.6333 H       1  ZINC000058174787    0.0800
     40 H40        -2.2855    2.2855   45.5736 H       1  ZINC000058174787    0.1400
     41 H41        -1.1878    4.3310   44.7653 H       1  ZINC000058174787    0.1400
     42 H42         2.6270    2.4425   45.1023 H       1  ZINC000058174787    0.1400
     43 H43         1.5514    0.3881   45.9180 H       1  ZINC000058174787    0.1500
     44 H44        -1.4494    2.7163   54.9145 H       1  ZINC000058174787    0.1900
     45 H45        -3.8833    2.6915   57.1691 H       1  ZINC000058174787    0.0900
     46 H46        -4.9847    1.7753   56.1128 H       1  ZINC000058174787    0.1000
     47 H47        -3.2806    1.2836   56.2620 H       1  ZINC000058174787    0.0900
@<TRIPOS>BOND
     1     1     2    1
     2     1    29    1
     3     1    30    1
     4     1    31    1
     5     2    27    1
     6     2     3    2
     7     3     4    1
     8     4     5    1
     9     4    26    2
    10     5     6    2
    11     5     7    2
    12     5     8   am
    13     8     9    1
    14     8    32    1
    15     9    10    1
    16     9    33    1
    17     9    34    1
    18    10    11    1
    19    10    35    1
    20    10    36    1
    21    11    12    2
    22    11    13    1
    23    13    14    1
    24    14    15    1
    25    14    16    1
    26    14    17    1
    27    16    37    1
    28    16    38    1
    29    16    39    1
    30    17    18    2
    31    17    19    1
    32    19    25   ar
    33    19    20   ar
    34    20    21   ar
    35    20    40    1
    36    21    22   ar
    37    21    41    1
    38    22    23    1
    39    22    24   ar
    40    24    25   ar
    41    24    42    1
    42    25    43    1
    43    26    27    1
    44    26    44    1
    45    27    28    1
    46    28    45    1
    47    28    46    1
    48    28    47    1
@<TRIPOS>SUBSTRUCTURE
     1 ZINC000058174787        1 TEMP              0 ****  ****    0 ROOT


##########                                Name:    ZINC000822206030
##########                DOCK_Rotatable_Bonds:                   7
##########                         Heavy_Atoms:                  29
##########                    Molecular_Weight:             391.448
##########                DOCK_Rotatable_Bonds:                   7
##########                       Formal_Charge:         -0.00999995
##########                     HBond_Acceptors:                   7
##########                        HBond_Donors:                   1
##########                         Heavy_Atoms:                  29
##########                          Grid_Score:          -35.289867
##########                     Grid_vdw_energy:          -33.797832
##########                      Grid_es_energy:           -1.492036
##########           Internal_energy_repulsive:           20.860096

@<TRIPOS>MOLECULE
ZINC000822206030
 51 55 1 0 0
SMALL
USER_CHARGES


@<TRIPOS>ATOM
      1 C1          2.7934    2.0588   48.4008 C.3     1  ZINC000822206030   -0.1300
      2 C2          1.7719    0.9600   48.5436 C.ar    1  ZINC000822206030   -0.0400
      3 C3          2.1676   -0.3620   48.4935 C.ar    1  ZINC000822206030   -0.1500
      4 C4          1.2292   -1.3722   48.6241 C.ar    1  ZINC000822206030    0.1100
      5 F5          1.6183   -2.6649   48.5744 F       1  ZINC000822206030   -0.1400
      6 C6         -0.1072   -1.0589   48.8059 C.ar    1  ZINC000822206030   -0.1500
      7 C7         -0.5071    0.2623   48.8565 C.ar    1  ZINC000822206030   -0.0800
      8 C8          0.4327    1.2763   48.7311 C.ar    1  ZINC000822206030    0.1100
      9 N9          0.0295    2.6163   48.7826 N.am    1  ZINC000822206030   -0.5600
     10 C10        -0.7647    3.1848   47.6906 C.3     1  ZINC000822206030    0.1500
     11 C11        -0.4576    2.4503   46.4111 C.ar    1  ZINC000822206030   -0.0900
     12 C12        -1.3188    1.4680   45.9566 C.ar    1  ZINC000822206030   -0.1000
     13 C13        -1.0425    0.7926   44.7851 C.ar    1  ZINC000822206030   -0.0800
     14 C14         0.1061    1.1017   44.0601 C.ar    1  ZINC000822206030   -0.0100
     15 C15         0.4083    0.3788   42.7991 C.2     1  ZINC000822206030    0.2200
     16 N16        -0.4077   -0.4102   42.1289 N.2     1  ZINC000822206030   -0.2900
     17 N17         0.2252   -0.8442   41.0936 N.pl3   1  ZINC000822206030   -0.2300
     18 N18         1.4160   -0.3554   41.0866 N.2     1  ZINC000822206030   -0.0500
     19 N19         1.5622    0.4060   42.1174 N.2     1  ZINC000822206030   -0.2700
     20 C20         0.9701    2.0917   44.5223 C.ar    1  ZINC000822206030   -0.0800
     21 C21         0.6816    2.7647   45.6924 C.ar    1  ZINC000822206030   -0.0900
     22 C22         0.3721    3.3832   49.8367 C.2     1  ZINC000822206030    0.5500
     23 O23         1.0283    2.9122   50.7414 O.2     1  ZINC000822206030   -0.5000
     24 C24        -0.0603    4.8257   49.8912 C.3     1  ZINC000822206030   -0.1900
     25 H25         0.0673    5.3900   48.9673 H       1  ZINC000822206030    0.1200
     26 C26         0.1421    5.5746   51.2099 C.3     1  ZINC000822206030   -0.1400
     27 C27        -1.2662    5.1692   50.7679 C.3     1  ZINC000822206030   -0.0900
     28 H28        -1.9319    5.9596   50.4210 H       1  ZINC000822206030    0.1100
     29 C29        -1.9410    4.0223   51.5229 C.3     1  ZINC000822206030   -0.1100
     30 C30        -3.1742    4.3587   52.3636 C.3     1  ZINC000822206030   -0.2000
     31 C31        -3.3300    3.5870   51.0518 C.3     1  ZINC000822206030   -0.1200
     32 H32         3.1821    2.3234   49.3842 H       1  ZINC000822206030    0.0900
     33 H33         3.6111    1.7147   47.7675 H       1  ZINC000822206030    0.0700
     34 H34         2.3258    2.9329   47.9477 H       1  ZINC000822206030    0.0700
     35 H35         3.2096   -0.6084   48.3522 H       1  ZINC000822206030    0.1400
     36 H36        -0.8374   -1.8481   48.9079 H       1  ZINC000822206030    0.1400
     37 H37        -1.5496    0.5062   48.9980 H       1  ZINC000822206030    0.1400
     38 H38        -1.8252    3.0838   47.9219 H       1  ZINC000822206030    0.1000
     39 H39        -0.5174    4.2397   47.5725 H       1  ZINC000822206030    0.0900
     40 H40        -2.2089    1.2289   46.5196 H       1  ZINC000822206030    0.1300
     41 H41        -1.7154    0.0256   44.4312 H       1  ZINC000822206030    0.1400
     42 H42        -0.1386   -1.4453   40.4248 H       1  ZINC000822206030    0.4800
     43 H43         1.8622    2.3350   43.9643 H       1  ZINC000822206030    0.1300
     44 H44         1.3507    3.5326   46.0517 H       1  ZINC000822206030    0.1400
     45 H45         0.5879    5.0238   52.0381 H       1  ZINC000822206030    0.1000
     46 H46         0.4024    6.6316   51.1537 H       1  ZINC000822206030    0.1000
     47 H47        -1.2715    3.2484   51.8982 H       1  ZINC000822206030    0.1000
     48 H48        -3.3161    3.8063   53.2925 H       1  ZINC000822206030    0.0900
     49 H49        -3.5048    5.3972   52.3790 H       1  ZINC000822206030    0.0900
     50 H50        -3.7633    4.1178   50.2040 H       1  ZINC000822206030    0.0800
     51 H51        -3.5745    2.5268   51.1176 H       1  ZINC000822206030    0.0900
@<TRIPOS>BOND
     1     1     2    1
     2     1    32    1
     3     1    33    1
     4     1    34    1
     5     2     8   ar
     6     2     3   ar
     7     3     4   ar
     8     3    35    1
     9     4     5    1
    10     4     6   ar
    11     6     7   ar
    12     6    36    1
    13     7     8   ar
    14     7    37    1
    15     8     9    1
    16     9    10    1
    17     9    22   am
    18    10    11    1
    19    10    38    1
    20    10    39    1
    21    11    21   ar
    22    11    12   ar
    23    12    13   ar
    24    12    40    1
    25    13    14   ar
    26    13    41    1
    27    14    15    1
    28    14    20   ar
    29    15    19    1
    30    15    16    2
    31    16    17    1
    32    17    18    1
    33    17    42    1
    34    18    19    2
    35    20    21   ar
    36    20    43    1
    37    21    44    1
    38    22    23    2
    39    22    24    1
    40    24    25    1
    41    24    27    1
    42    24    26    1
    43    26    27    1
    44    26    45    1
    45    26    46    1
    46    27    28    1
    47    27    29    1
    48    29    31    1
    49    29    30    1
    50    29    47    1
    51    30    31    1
    52    30    48    1
    53    30    49    1
    54    31    50    1
    55    31    51    1
@<TRIPOS>SUBSTRUCTURE
     1 ZINC000822206030        1 TEMP              0 ****  ****    0 ROOT


##########                                Name:    ZINC000546142192
##########                DOCK_Rotatable_Bonds:                  12
##########                         Heavy_Atoms:                  31
##########                    Molecular_Weight:             420.511
##########                DOCK_Rotatable_Bonds:                  12
##########                       Formal_Charge:          -0.0599997
##########                     HBond_Acceptors:                   7
##########                        HBond_Donors:                   2
##########                         Heavy_Atoms:                  31
##########                          Grid_Score:          -35.264339
##########                     Grid_vdw_energy:          -32.624470
##########                      Grid_es_energy:           -2.639871
##########           Internal_energy_repulsive:           11.542591

@<TRIPOS>MOLECULE
ZINC000546142192
 59 61 1 0 0
SMALL
USER_CHARGES


@<TRIPOS>ATOM
      1 C1        -14.0874   -5.3769   57.4716 C.3     1  ZINC000546142192    0.0300
      2 O2        -14.0784   -3.9539   57.7606 O.3     1  ZINC000546142192   -0.3600
      3 C3        -13.6281   -3.1385   56.7941 C.2     1  ZINC000546142192    0.4600
      4 O4        -14.3319   -2.8781   55.8470 O.2     1  ZINC000546142192   -0.5100
      5 C5        -12.2450   -2.5479   56.8902 C.3     1  ZINC000546142192   -0.0800
      6 H6        -11.5719   -3.2719   57.3490 H       1  ZINC000546142192    0.1100
      7 C7        -11.7407   -2.1997   55.4883 C.3     1  ZINC000546142192   -0.1500
      8 C8        -12.2903   -1.2801   57.7456 C.3     1  ZINC000546142192   -0.0600
      9 C9        -11.1406   -1.2903   58.7199 C.ar    1  ZINC000546142192   -0.1000
     10 C10        -9.8839   -0.8861   58.3083 C.ar    1  ZINC000546142192   -0.0900
     11 C11        -8.8282   -0.8938   59.1990 C.ar    1  ZINC000546142192   -0.1200
     12 C12        -9.0301   -1.3081   60.5089 C.ar    1  ZINC000546142192    0.1600
     13 N13        -7.9627   -1.3167   61.4140 N.am    1  ZINC000546142192   -0.6900
     14 C14        -7.7195   -0.2343   62.1794 C.2     1  ZINC000546142192    0.7100
     15 O15        -8.4275    0.7495   62.0835 O.2     1  ZINC000546142192   -0.5700
     16 N16        -6.6916   -0.2425   63.0511 N.am    1  ZINC000546142192   -0.7400
     17 C17        -6.4263    0.9346   63.8818 C.3     1  ZINC000546142192    0.2300
     18 C18        -7.1268    0.7821   65.2074 C.2     1  ZINC000546142192    0.1800
     19 N19        -7.6101   -0.3304   65.6886 N.2     1  ZINC000546142192   -0.4700
     20 C20        -8.1616   -0.0912   66.8876 C.2     1  ZINC000546142192   -0.0300
     21 C21        -8.0144    1.2195   67.1598 C.2     1  ZINC000546142192   -0.0400
     22 N22        -7.3533    1.7729   66.0966 N.pl3   1  ZINC000546142192   -0.4500
     23 C23        -6.9706    3.1792   65.9473 C.3     1  ZINC000546142192    0.1100
     24 C24        -5.7787    3.4826   66.8572 C.3     1  ZINC000546142192   -0.0900
     25 C25        -4.5875    2.6743   66.4110 C.ar    1  ZINC000546142192   -0.0900
     26 C26        -4.2893    1.4789   67.0379 C.ar    1  ZINC000546142192   -0.1100
     27 C27        -3.1968    0.7375   66.6286 C.ar    1  ZINC000546142192   -0.1200
     28 C28        -2.4027    1.1914   65.5921 C.ar    1  ZINC000546142192   -0.1200
     29 C29        -2.7014    2.3863   64.9646 C.ar    1  ZINC000546142192   -0.1200
     30 C30        -3.7965    3.1256   65.3711 C.ar    1  ZINC000546142192   -0.1100
     31 C31       -10.2934   -1.7133   60.9191 C.ar    1  ZINC000546142192   -0.1500
     32 C32       -11.3459   -1.6983   60.0251 C.ar    1  ZINC000546142192   -0.0900
     33 H33       -13.0722   -5.7102   57.2564 H       1  ZINC000546142192    0.0600
     34 H34       -14.4733   -5.9204   58.3340 H       1  ZINC000546142192    0.1000
     35 H35       -14.7234   -5.5680   56.6073 H       1  ZINC000546142192    0.0600
     36 H36       -12.4139   -1.4755   55.0294 H       1  ZINC000546142192    0.0600
     37 H37       -10.7403   -1.7724   55.5579 H       1  ZINC000546142192    0.0800
     38 H38       -11.7085   -3.1028   54.8790 H       1  ZINC000546142192    0.0700
     39 H39       -12.2128   -0.4043   57.1014 H       1  ZINC000546142192    0.0800
     40 H40       -13.2314   -1.2454   58.2944 H       1  ZINC000546142192    0.0800
     41 H41        -9.7275   -0.5644   57.2893 H       1  ZINC000546142192    0.1300
     42 H42        -7.8469   -0.5784   58.8768 H       1  ZINC000546142192    0.1400
     43 H43        -7.3979   -2.1016   61.4903 H       1  ZINC000546142192    0.4100
     44 H44        -6.1276   -1.0279   63.1284 H       1  ZINC000546142192    0.4000
     45 H45        -5.3528    1.0283   64.0470 H       1  ZINC000546142192    0.0800
     46 H46        -6.7954    1.8269   63.3763 H       1  ZINC000546142192    0.1000
     47 H47        -8.6398   -0.8216   67.5234 H       1  ZINC000546142192    0.1700
     48 H48        -8.3497    1.7342   68.0480 H       1  ZINC000546142192    0.1800
     49 H49        -6.6949    3.3726   64.9106 H       1  ZINC000546142192    0.1000
     50 H50        -7.8107    3.8158   66.2245 H       1  ZINC000546142192    0.0900
     51 H51        -5.5391    4.5445   66.8003 H       1  ZINC000546142192    0.0800
     52 H52        -6.0305    3.2215   67.8851 H       1  ZINC000546142192    0.0800
     53 H53        -4.9098    1.1244   67.8477 H       1  ZINC000546142192    0.1200
     54 H54        -2.9635   -0.1961   67.1188 H       1  ZINC000546142192    0.1200
     55 H55        -1.5487    0.6124   65.2728 H       1  ZINC000546142192    0.1200
     56 H56        -2.0807    2.7410   64.1550 H       1  ZINC000546142192    0.1200
     57 H57        -4.0299    4.0592   64.8809 H       1  ZINC000546142192    0.1200
     58 H58       -10.4534   -2.0360   61.9373 H       1  ZINC000546142192    0.1300
     59 H59       -12.3288   -2.0130   60.3436 H       1  ZINC000546142192    0.1300
@<TRIPOS>BOND
     1     1     2    1
     2     1    33    1
     3     1    34    1
     4     1    35    1
     5     2     3    1
     6     3     4    2
     7     3     5    1
     8     5     6    1
     9     5     7    1
    10     5     8    1
    11     7    36    1
    12     7    37    1
    13     7    38    1
    14     8     9    1
    15     8    39    1
    16     8    40    1
    17     9    32   ar
    18     9    10   ar
    19    10    11   ar
    20    10    41    1
    21    11    12   ar
    22    11    42    1
    23    12    13    1
    24    12    31   ar
    25    13    14   am
    26    13    43    1
    27    14    15    2
    28    14    16   am
    29    16    17    1
    30    16    44    1
    31    17    18    1
    32    17    45    1
    33    17    46    1
    34    18    22    1
    35    18    19    2
    36    19    20    1
    37    20    21    2
    38    20    47    1
    39    21    22    1
    40    21    48    1
    41    22    23    1
    42    23    24    1
    43    23    49    1
    44    23    50    1
    45    24    25    1
    46    24    51    1
    47    24    52    1
    48    25    30   ar
    49    25    26   ar
    50    26    27   ar
    51    26    53    1
    52    27    28   ar
    53    27    54    1
    54    28    29   ar
    55    28    55    1
    56    29    30   ar
    57    29    56    1
    58    30    57    1
    59    31    32   ar
    60    31    58    1
    61    32    59    1
@<TRIPOS>SUBSTRUCTURE
     1 ZINC000546142192        1 TEMP              0 ****  ****    0 ROOT


##########                                Name:     oleObject14.pdb
##########                DOCK_Rotatable_Bonds:                   9
##########                         Heavy_Atoms:                  33
##########                    Molecular_Weight:             484.424
##########                DOCK_Rotatable_Bonds:                   9
##########                       Formal_Charge:         0.000299782
##########                     HBond_Acceptors:                   7
##########                        HBond_Donors:                   1
##########                         Heavy_Atoms:                  33
##########                          Grid_Score:          -35.246140
##########                     Grid_vdw_energy:          -35.155041
##########                      Grid_es_energy:           -0.091099
##########           Internal_energy_repulsive:           10.718345

@<TRIPOS>MOLECULE
oleObject14.pdb
 60 63 1 0 0
SMALL
NO_CHARGES


@<TRIPOS>ATOM
      1 C          -1.6976    1.5269   46.3725 C.ar    1  UNL         0.0422
      2 C          -1.7304    0.6691   47.4832 C.ar    1  UNL        -0.0408
      3 C          -1.7097    1.2003   48.7837 C.ar    1  UNL        -0.0288
      4 C          -1.6557    2.5970   48.9795 C.ar    1  UNL         0.0937
      5 C          -1.6234    3.4511   47.8582 C.ar    1  UNL         0.0723
      6 C          -1.6442    2.9171   46.5590 C.ar    1  UNL        -0.0221
      7 CL         -1.5564    5.1925   48.0560 Cl      1  UNL        -0.0814
      8 O          -1.6339    3.1595   50.2414 O.3     1  UNL        -0.3432
      9 C          -2.8195    3.4983   50.9824 C.3     1  UNL         0.0661
     10 C          -2.3767    4.1911   52.2878 C.3     1  UNL         0.0222
     11 N          -3.4232    4.2013   53.3340 N.4     1  UNL        -0.3010
     12 C          -4.7420    4.6932   52.8711 C.3     1  UNL        -0.0010
     13 C          -5.7604    4.7880   54.0290 C.3     1  UNL        -0.0289
     14 C          -5.9079    3.4599   54.8101 C.3     1  UNL         0.0382
     15 C          -4.5109    2.9159   55.2021 C.3     1  UNL        -0.0289
     16 C          -3.5074    2.8964   54.0251 C.3     1  UNL        -0.0010
     17 C          -6.7437    2.4217   54.0214 C.2     1  UNL         0.2156
     18 O          -6.3291    1.9035   53.0006 O.2     1  UNL        -0.2774
     19 N          -7.9848    2.0246   54.5024 N.am    1  UNL        -0.3025
     20 C          -8.9176    1.0559   53.8965 C.3     1  UNL         0.0900
     21 C          -9.5840    0.1463   54.9271 C.ar    1  UNL        -0.0217
     22 C          -9.6381    0.5049   56.2892 C.ar    1  UNL        -0.0568
     23 C         -10.2448   -0.3484   57.2252 C.ar    1  UNL        -0.0619
     24 C         -10.8055   -1.5654   56.8071 C.ar    1  UNL        -0.0622
     25 C         -10.7612   -1.9269   55.4515 C.ar    1  UNL        -0.0619
     26 C         -10.1545   -1.0733   54.5157 C.ar    1  UNL        -0.0568
     27 C          -9.9654    1.7483   53.0302 C.ar    1  UNL         0.0652
     28 C          -9.6719    2.9246   52.3097 C.ar    1  UNL        -0.0383
     29 C         -10.6813    3.5203   51.5366 C.ar    1  UNL        -0.0588
     30 C         -11.9497    2.9200   51.5116 C.ar    1  UNL        -0.0438
     31 C         -12.1571    1.7492   52.2609 C.ar    1  UNL         0.0272
     32 N         -11.1890    1.1758   53.0041 N.ar    1  UNL        -0.2590
     33 CL         -1.7235    0.8619   44.7534 Cl      1  UNL        -0.0843
     34 H          -1.7720   -0.4067   47.3381 H       1  UNL         0.0639
     35 H          -1.7362    0.5186   49.6276 H       1  UNL         0.0652
     36 H          -1.6189    3.5801   45.6988 H       1  UNL         0.0655
     37 H          -3.3908    2.5903   51.2102 H       1  UNL         0.0586
     38 H          -3.4482    4.1844   50.4006 H       1  UNL         0.0586
     39 H          -2.1059    5.2256   52.0396 H       1  UNL         0.0455
     40 H          -1.4732    3.6963   52.6676 H       1  UNL         0.0455
     41 H          -5.1357    4.0226   52.0960 H       1  UNL         0.0431
     42 H          -4.6470    5.6912   52.4279 H       1  UNL         0.0431
     43 H          -6.7328    5.1097   53.6384 H       1  UNL         0.0288
     44 H          -5.4272    5.5713   54.7222 H       1  UNL         0.0288
     45 H          -6.4169    3.6886   55.7502 H       1  UNL         0.0402
     46 H          -4.6054    1.9090   55.6283 H       1  UNL         0.0288
     47 H          -4.0969    3.5529   55.9945 H       1  UNL         0.0288
     48 H          -3.8013    2.1189   53.3088 H       1  UNL         0.0431
     49 H          -2.5201    2.6200   54.4173 H       1  UNL         0.0431
     50 H          -8.2288    2.3746   55.4201 H       1  UNL         0.1504
     51 H          -8.3239    0.4268   53.2209 H       1  UNL         0.0624
     52 H          -9.2023    1.4405   56.6271 H       1  UNL         0.0626
     53 H         -10.2789   -0.0669   58.2738 H       1  UNL         0.0623
     54 H         -11.2752   -2.2253   57.5311 H       1  UNL         0.0623
     55 H         -11.1979   -2.8667   55.1257 H       1  UNL         0.0623
     56 H         -10.1272   -1.3613   53.4683 H       1  UNL         0.0626
     57 H          -8.6820    3.3688   52.3480 H       1  UNL         0.0643
     58 H         -10.4849    4.4263   50.9706 H       1  UNL         0.0624
     59 H         -12.7557    3.3514   50.9254 H       1  UNL         0.0639
     60 H         -13.1281    1.2553   52.2668 H       1  UNL         0.0840
@<TRIPOS>BOND
     1     1     2   ar
     2     1     6   ar
     3     1    33    1
     4     2     3   ar
     5     2    34    1
     6     3     4   ar
     7     3    35    1
     8     4     5   ar
     9     4     8    1
    10     5     6   ar
    11     5     7    1
    12     6    36    1
    13     8     9    1
    14     9    10    1
    15     9    37    1
    16     9    38    1
    17    10    11    1
    18    10    39    1
    19    10    40    1
    20    11    12    1
    21    11    16    1
    22    12    13    1
    23    12    41    1
    24    12    42    1
    25    13    14    1
    26    13    43    1
    27    13    44    1
    28    14    15    1
    29    14    17    1
    30    14    45    1
    31    15    16    1
    32    15    46    1
    33    15    47    1
    34    16    48    1
    35    16    49    1
    36    17    18    2
    37    17    19   am
    38    19    20    1
    39    19    50    1
    40    20    21    1
    41    20    27    1
    42    20    51    1
    43    21    22   ar
    44    21    26   ar
    45    22    23   ar
    46    22    52    1
    47    23    24   ar
    48    23    53    1
    49    24    25   ar
    50    24    54    1
    51    25    26   ar
    52    25    55    1
    53    26    56    1
    54    27    28   ar
    55    27    32   ar
    56    28    29   ar
    57    28    57    1
    58    29    30   ar
    59    29    58    1
    60    30    31   ar
    61    30    59    1
    62    31    32   ar
    63    31    60    1
@<TRIPOS>SUBSTRUCTURE
     1 UNL         1 TEMP              0 ****  ****    0 ROOT


##########                                Name:    ZINC000428748914
##########                DOCK_Rotatable_Bonds:                  11
##########                         Heavy_Atoms:                  30
##########                    Molecular_Weight:             413.492
##########                DOCK_Rotatable_Bonds:                  11
##########                       Formal_Charge:           0.0199993
##########                     HBond_Acceptors:                   7
##########                        HBond_Donors:                   3
##########                         Heavy_Atoms:                  30
##########                          Grid_Score:          -35.136822
##########                     Grid_vdw_energy:          -34.576092
##########                      Grid_es_energy:           -0.560731
##########           Internal_energy_repulsive:           20.233252

@<TRIPOS>MOLECULE
ZINC000428748914
 58 61 1 0 0
SMALL
USER_CHARGES


@<TRIPOS>ATOM
      1 O1         -2.8476    3.7444   49.6617 O.2     1  ZINC000428748914   -0.5900
      2 C2         -1.9862    3.0402   50.1522 C.2     1  ZINC000428748914    0.7000
      3 N3         -1.5382    3.2923   51.3980 N.am    1  ZINC000428748914   -0.7400
      4 C4         -2.0849    4.4185   52.1591 C.3     1  ZINC000428748914    0.1900
      5 C5         -3.2745    3.9539   52.9591 C.ar    1  ZINC000428748914   -0.2000
      6 C6         -3.0943    3.2018   54.1115 C.ar    1  ZINC000428748914   -0.0200
      7 C7         -4.2140    2.7955   54.8165 C.ar    1  ZINC000428748914   -0.1900
      8 C8         -5.4725    3.1518   54.3497 C.ar    1  ZINC000428748914    0.3300
      9 O9         -6.5780    2.7601   55.0319 O.3     1  ZINC000428748914   -0.3000
     10 C10        -6.3813    2.2712   56.3602 C.3     1  ZINC000428748914    0.0800
     11 C11        -5.8818    3.4069   57.2875 C.3     1  ZINC000428748914   -0.1400
     12 C12        -6.3022    2.9102   58.6931 C.3     1  ZINC000428748914   -0.1200
     13 C13        -7.6755    2.2458   58.4645 C.3     1  ZINC000428748914   -0.1200
     14 C14        -7.7258    1.8395   56.9812 C.3     1  ZINC000428748914   -0.1200
     15 N15        -5.6037    3.8700   53.2466 N.ar    1  ZINC000428748914   -0.5400
     16 C16        -4.5554    4.2767   52.5566 C.ar    1  ZINC000428748914    0.1600
     17 N17        -1.4833    2.0043   49.4520 N.am    1  ZINC000428748914   -0.7400
     18 C18        -1.9702    1.7302   48.0977 C.3     1  ZINC000428748914    0.1800
     19 C19        -0.8046    1.2698   47.2201 C.3     1  ZINC000428748914   -0.1300
     20 C20        -0.7081   -0.2396   46.9895 C.3     1  ZINC000428748914    0.1100
     21 O21        -0.4450   -0.8954   48.2316 O.3     1  ZINC000428748914   -0.5700
     22 C22         0.5048    2.0554   47.3157 C.3     1  ZINC000428748914   -0.1400
     23 C23        -0.3781    2.1883   46.0733 C.3     1  ZINC000428748914   -0.1000
     24 H24        -0.9279    3.1206   45.9440 H       1  ZINC000428748914    0.1200
     25 C25         0.1057    1.5375   44.8030 C.ar    1  ZINC000428748914   -0.0700
     26 C26         1.4182    1.6997   44.4003 C.ar    1  ZINC000428748914   -0.0900
     27 C27         1.8630    1.1034   43.2357 C.ar    1  ZINC000428748914   -0.1500
     28 C28         0.9936    0.3428   42.4724 C.ar    1  ZINC000428748914    0.1000
     29 F29         1.4274   -0.2411   41.3338 F       1  ZINC000428748914   -0.1400
     30 C30        -0.3206    0.1806   42.8769 C.ar    1  ZINC000428748914   -0.1500
     31 C31        -0.7619    0.7740   44.0444 C.ar    1  ZINC000428748914   -0.0800
     32 H32        -0.8538    2.7282   51.7909 H       1  ZINC000428748914    0.4000
     33 H33        -1.3216    4.8053   52.8344 H       1  ZINC000428748914    0.0800
     34 H34        -2.3943    5.2056   51.4716 H       1  ZINC000428748914    0.0800
     35 H35        -2.1030    2.9392   54.4503 H       1  ZINC000428748914    0.1400
     36 H36        -4.1105    2.2087   55.7173 H       1  ZINC000428748914    0.1400
     37 H37        -5.6769    1.4393   56.3591 H       1  ZINC000428748914    0.1000
     38 H38        -4.7988    3.5107   57.2224 H       1  ZINC000428748914    0.0700
     39 H39        -6.3762    4.3480   57.0465 H       1  ZINC000428748914    0.0800
     40 H40        -5.5843    2.1823   59.0709 H       1  ZINC000428748914    0.0700
     41 H41        -6.3945    3.7496   59.3824 H       1  ZINC000428748914    0.0700
     42 H42        -7.7733    1.3634   59.0968 H       1  ZINC000428748914    0.0700
     43 H43        -8.4742    2.9540   58.6849 H       1  ZINC000428748914    0.0700
     44 H44        -8.5489    2.3505   56.4818 H       1  ZINC000428748914    0.0800
     45 H45        -7.8479    0.7599   56.8938 H       1  ZINC000428748914    0.0700
     46 H46        -4.7011    4.8619   51.6606 H       1  ZINC000428748914    0.1600
     47 H47        -0.7989    1.4401   49.8447 H       1  ZINC000428748914    0.3900
     48 H48        -2.7279    0.9475   48.1355 H       1  ZINC000428748914    0.0700
     49 H49        -2.4053    2.6370   47.6777 H       1  ZINC000428748914    0.0900
     50 H50        -1.6488   -0.6051   46.5778 H       1  ZINC000428748914    0.0500
     51 H51         0.1006   -0.4493   46.2895 H       1  ZINC000428748914    0.0600
     52 H52        -1.1402   -0.7780   48.8934 H       1  ZINC000428748914    0.3800
     53 H53         0.5358    2.9002   48.0038 H       1  ZINC000428748914    0.1100
     54 H54         1.4354    1.4969   47.2145 H       1  ZINC000428748914    0.1100
     55 H55         2.0962    2.2931   44.9960 H       1  ZINC000428748914    0.1400
     56 H56         2.8882    1.2308   42.9210 H       1  ZINC000428748914    0.1400
     57 H57        -0.9997   -0.4122   42.2820 H       1  ZINC000428748914    0.1400
     58 H58        -1.7868    0.6473   44.3603 H       1  ZINC000428748914    0.1300
@<TRIPOS>BOND
     1     1     2    2
     2     2     3   am
     3     2    17   am
     4     3     4    1
     5     3    32    1
     6     4     5    1
     7     4    33    1
     8     4    34    1
     9     5    16   ar
    10     5     6   ar
    11     6     7   ar
    12     6    35    1
    13     7     8   ar
    14     7    36    1
    15     8     9    1
    16     8    15   ar
    17     9    10    1
    18    10    14    1
    19    10    11    1
    20    10    37    1
    21    11    12    1
    22    11    38    1
    23    11    39    1
    24    12    13    1
    25    12    40    1
    26    12    41    1
    27    13    14    1
    28    13    42    1
    29    13    43    1
    30    14    44    1
    31    14    45    1
    32    15    16   ar
    33    16    46    1
    34    17    18    1
    35    17    47    1
    36    18    19    1
    37    18    48    1
    38    18    49    1
    39    19    23    1
    40    19    20    1
    41    19    22    1
    42    20    21    1
    43    20    50    1
    44    20    51    1
    45    21    52    1
    46    22    23    1
    47    22    53    1
    48    22    54    1
    49    23    24    1
    50    23    25    1
    51    25    31   ar
    52    25    26   ar
    53    26    27   ar
    54    26    55    1
    55    27    28   ar
    56    27    56    1
    57    28    29    1
    58    28    30   ar
    59    30    31   ar
    60    30    57    1
    61    31    58    1
@<TRIPOS>SUBSTRUCTURE
     1 ZINC000428748914        1 TEMP              0 ****  ****    0 ROOT


##########                                Name:    ZINC001090961577
##########                DOCK_Rotatable_Bonds:                   9
##########                         Heavy_Atoms:                  24
##########                    Molecular_Weight:             352.458
##########                DOCK_Rotatable_Bonds:                   9
##########                       Formal_Charge:                0.02
##########                     HBond_Acceptors:                   8
##########                        HBond_Donors:                   1
##########                         Heavy_Atoms:                  24
##########                          Grid_Score:          -35.128544
##########                     Grid_vdw_energy:          -34.515335
##########                      Grid_es_energy:           -0.613208
##########           Internal_energy_repulsive:            8.374985

@<TRIPOS>MOLECULE
ZINC001090961577
 48 49 1 0 0
SMALL
USER_CHARGES


@<TRIPOS>ATOM
      1 C1         -6.9162    1.6843   58.1651 C.3     1  ZINC001090961577   -0.1400
      2 C2         -6.0693    2.8827   57.7319 C.3     1  ZINC001090961577   -0.0900
      3 S3         -4.7990    2.3331   56.5594 S.3     1  ZINC001090961577   -0.2700
      4 C4         -3.9901    3.8835   56.0775 C.3     1  ZINC001090961577   -0.0700
      5 C5         -2.9298    3.5961   55.0127 C.3     1  ZINC001090961577   -0.1200
      6 C6         -3.5934    3.4609   53.6665 C.2     1  ZINC001090961577    0.5400
      7 O7         -4.7731    3.1878   53.5966 O.2     1  ZINC001090961577   -0.5300
      8 N8         -2.8761    3.6431   52.5402 N.am    1  ZINC001090961577   -0.6200
      9 C9         -1.4453    3.9762   52.4800 C.3     1  ZINC001090961577    0.1100
     10 C10        -1.0563    4.0582   50.9888 C.3     1  ZINC001090961577   -0.1100
     11 H11        -1.0859    5.0900   50.6388 H       1  ZINC001090961577    0.0900
     12 C12         0.3280    3.4494   50.7562 C.3     1  ZINC001090961577   -0.1400
     13 C13        -2.1562    3.2115   50.2956 C.3     1  ZINC001090961577    0.1500
     14 H14        -1.9182    2.1488   50.3414 H       1  ZINC001090961577    0.1200
     15 N15        -2.3557    3.6429   48.9099 N.pl3   1  ZINC001090961577   -0.6700
     16 C16        -1.9905    2.8137   47.8702 C.ar    1  ZINC001090961577    0.5900
     17 N17        -1.6546    3.3516   46.7049 N.ar    1  ZINC001090961577   -0.5700
     18 C18        -1.2992    2.5930   45.6855 C.ar    1  ZINC001090961577    0.2700
     19 C19        -1.2805    1.2010   45.8484 C.ar    1  ZINC001090961577   -0.3000
     20 C20        -0.8897    0.3145   44.7372 C.2     1  ZINC001090961577    0.5300
     21 O21        -1.2899   -0.8323   44.7053 O.2     1  ZINC001090961577   -0.5100
     22 O22        -0.0888    0.7760   43.7568 O.3     1  ZINC001090961577   -0.3600
     23 C23         0.0019   -0.0238   42.5482 C.3     1  ZINC001090961577    0.0400
     24 C24        -1.6424    0.6739   47.0957 C.ar    1  ZINC001090961577    0.2600
     25 N25        -1.9803    1.5014   48.0663 N.ar    1  ZINC001090961577   -0.5700
     26 C26        -3.3946    3.5353   51.1643 C.3     1  ZINC001090961577    0.0900
     27 H27        -7.6795    2.0146   58.8697 H       1  ZINC001090961577    0.0700
     28 H28        -7.3951    1.2430   57.2911 H       1  ZINC001090961577    0.0700
     29 H29        -6.2774    0.9417   58.6432 H       1  ZINC001090961577    0.0700
     30 H30        -6.7081    3.6253   57.2538 H       1  ZINC001090961577    0.0800
     31 H31        -5.5904    3.3240   58.6060 H       1  ZINC001090961577    0.0800
     32 H32        -4.7335    4.5710   55.6738 H       1  ZINC001090961577    0.0900
     33 H33        -3.5161    4.3326   56.9504 H       1  ZINC001090961577    0.0900
     34 H34        -2.2126    4.4164   54.9834 H       1  ZINC001090961577    0.1000
     35 H35        -2.4114    2.6690   55.2570 H       1  ZINC001090961577    0.1000
     36 H36        -1.2677    4.9370   52.9628 H       1  ZINC001090961577    0.0800
     37 H37        -0.8625    3.1979   52.9729 H       1  ZINC001090961577    0.0800
     38 H38         0.3277    2.4102   51.0849 H       1  ZINC001090961577    0.0600
     39 H39         0.5710    3.4945   49.6946 H       1  ZINC001090961577    0.0600
     40 H40         1.0713    4.0097   51.3233 H       1  ZINC001090961577    0.0700
     41 H41        -2.7447    4.5118   48.7236 H       1  ZINC001090961577    0.4200
     42 H42        -1.0274    3.0379   44.7397 H       1  ZINC001090961577    0.1800
     43 H43         0.6775    0.4597   41.8425 H       1  ZINC001090961577    0.1100
     44 H44         0.3831   -1.0144   42.7960 H       1  ZINC001090961577    0.0700
     45 H45        -0.9869   -0.1168   42.0992 H       1  ZINC001090961577    0.0700
     46 H46        -1.6407   -0.3934   47.2611 H       1  ZINC001090961577    0.1800
     47 H47        -4.1281    2.7321   51.0936 H       1  ZINC001090961577    0.0900
     48 H48        -3.8371    4.4825   50.8560 H       1  ZINC001090961577    0.0800
@<TRIPOS>BOND
     1     1     2    1
     2     1    27    1
     3     1    28    1
     4     1    29    1
     5     2     3    1
     6     2    30    1
     7     2    31    1
     8     3     4    1
     9     4     5    1
    10     4    32    1
    11     4    33    1
    12     5     6    1
    13     5    34    1
    14     5    35    1
    15     6     7    2
    16     6     8   am
    17     8    26    1
    18     8     9    1
    19     9    10    1
    20     9    36    1
    21     9    37    1
    22    10    11    1
    23    10    12    1
    24    10    13    1
    25    12    38    1
    26    12    39    1
    27    12    40    1
    28    13    14    1
    29    13    15    1
    30    13    26    1
    31    15    16    1
    32    15    41    1
    33    16    25   ar
    34    16    17   ar
    35    17    18   ar
    36    18    19   ar
    37    18    42    1
    38    19    20    1
    39    19    24   ar
    40    20    21    2
    41    20    22    1
    42    22    23    1
    43    23    43    1
    44    23    44    1
    45    23    45    1
    46    24    25   ar
    47    24    46    1
    48    26    47    1
    49    26    48    1
@<TRIPOS>SUBSTRUCTURE
     1 ZINC001090961577        1 TEMP              0 ****  ****    0 ROOT


##########                                Name:    ZINC000045927156
##########                DOCK_Rotatable_Bonds:                   7
##########                         Heavy_Atoms:                  30
##########                    Molecular_Weight:             418.522
##########                DOCK_Rotatable_Bonds:                   7
##########                       Formal_Charge:           0.0200001
##########                     HBond_Acceptors:                   8
##########                        HBond_Donors:                   1
##########                         Heavy_Atoms:                  30
##########                          Grid_Score:          -35.106804
##########                     Grid_vdw_energy:          -34.124645
##########                      Grid_es_energy:           -0.982161
##########           Internal_energy_repulsive:           13.151165

@<TRIPOS>MOLECULE
ZINC000045927156
 52 56 1 0 0
SMALL
USER_CHARGES


@<TRIPOS>ATOM
      1 O1        -10.6861    0.6009   58.2061 O.2     1  ZINC000045927156   -0.5800
      2 C2         -9.5519    0.2402   58.4550 C.2     1  ZINC000045927156    0.7300
      3 N3         -8.5515    0.5223   57.5972 N.am    1  ZINC000045927156   -0.7400
      4 C4         -8.8316    1.2585   56.3619 C.3     1  ZINC000045927156    0.1700
      5 C5         -7.6028    2.0243   55.9439 C.ar    1  ZINC000045927156   -0.0700
      6 C6         -6.5290    2.1324   56.8072 C.ar    1  ZINC000045927156   -0.1000
      7 C7         -5.4017    2.8349   56.4239 C.ar    1  ZINC000045927156   -0.1100
      8 C8         -5.3484    3.4288   55.1770 C.ar    1  ZINC000045927156   -0.1100
      9 C9         -6.4222    3.3200   54.3130 C.ar    1  ZINC000045927156   -0.1000
     10 C10        -7.5475    2.6140   54.6946 C.ar    1  ZINC000045927156   -0.1000
     11 C11        -8.7180    2.4953   53.7528 C.3     1  ZINC000045927156    0.1700
     12 N12        -8.5364    1.3225   52.8938 N.pl3   1  ZINC000045927156   -0.3800
     13 C13        -7.3701    0.8166   52.4569 C.2     1  ZINC000045927156    0.2500
     14 N14        -7.6332   -0.2300   51.7172 N.2     1  ZINC000045927156   -0.5400
     15 C15        -8.9503   -0.4226   51.6588 C.2     1  ZINC000045927156    0.2000
     16 N16        -9.5460    0.4997   52.3682 N.2     1  ZINC000045927156   -0.3100
     17 N17        -9.2943   -0.4371   59.5914 N.am    1  ZINC000045927156   -0.6200
     18 C18        -7.9711   -0.9276   60.0182 C.3     1  ZINC000045927156    0.1000
     19 C19        -8.0713   -1.0492   61.5592 C.3     1  ZINC000045927156   -0.1300
     20 C20        -9.5309   -1.5438   61.7384 C.3     1  ZINC000045927156   -0.1200
     21 C21       -10.2851   -0.8035   60.6140 C.3     1  ZINC000045927156    0.2300
     22 H22       -10.7608    0.0919   61.0139 H       1  ZINC000045927156    0.1000
     23 C23       -11.3264   -1.7111   60.0113 C.2     1  ZINC000045927156    0.0900
     24 N24       -12.5585   -1.7208   60.3553 N.2     1  ZINC000045927156   -0.4500
     25 C25       -13.3792   -2.5865   59.7303 C.ar    1  ZINC000045927156    0.0800
     26 C26       -14.7598   -2.8060   59.9081 C.ar    1  ZINC000045927156   -0.0700
     27 C27       -15.4107   -3.7431   59.1641 C.ar    1  ZINC000045927156   -0.1100
     28 C28       -14.7302   -4.4974   58.2190 C.ar    1  ZINC000045927156   -0.1000
     29 C29       -13.3810   -4.3045   58.0236 C.ar    1  ZINC000045927156   -0.0700
     30 C30       -12.6988   -3.3506   58.7755 C.ar    1  ZINC000045927156   -0.1800
     31 S31       -11.0109   -2.8493   58.7797 S.3     1  ZINC000045927156    0.1200
     32 H32        -7.6460    0.2381   57.7977 H       1  ZINC000045927156    0.3900
     33 H33        -9.1073    0.5564   55.5751 H       1  ZINC000045927156    0.1000
     34 H34        -9.6530    1.9545   56.5320 H       1  ZINC000045927156    0.0700
     35 H35        -6.5706    1.6683   57.7816 H       1  ZINC000045927156    0.1300
     36 H36        -4.5628    2.9200   57.0987 H       1  ZINC000045927156    0.1300
     37 H37        -4.4681    3.9782   54.8777 H       1  ZINC000045927156    0.1300
     38 H38        -6.3808    3.7843   53.3388 H       1  ZINC000045927156    0.1300
     39 H39        -9.6373    2.3855   54.3279 H       1  ZINC000045927156    0.1100
     40 H40        -8.7802    3.3916   53.1357 H       1  ZINC000045927156    0.1000
     41 H41        -6.3874    1.2064   52.6774 H       1  ZINC000045927156    0.2200
     42 H42        -9.4453   -1.2150   51.1170 H       1  ZINC000045927156    0.2200
     43 H43        -7.7660   -1.9013   59.5733 H       1  ZINC000045927156    0.0700
     44 H44        -7.1951   -0.2130   59.7437 H       1  ZINC000045927156    0.0800
     45 H45        -7.3606   -1.7824   61.9403 H       1  ZINC000045927156    0.0900
     46 H46        -7.9255   -0.0808   62.0378 H       1  ZINC000045927156    0.0800
     47 H47        -9.5916   -2.6236   61.6024 H       1  ZINC000045927156    0.0900
     48 H48        -9.9189   -1.2548   62.7151 H       1  ZINC000045927156    0.0900
     49 H49       -15.3053   -2.2279   60.6394 H       1  ZINC000045927156    0.1300
     50 H50       -16.4689   -3.9011   59.3117 H       1  ZINC000045927156    0.1400
     51 H51       -15.2593   -5.2370   57.6363 H       1  ZINC000045927156    0.1400
     52 H52       -12.8519   -4.8925   57.2884 H       1  ZINC000045927156    0.1300
@<TRIPOS>BOND
     1     1     2    2
     2     2     3   am
     3     2    17   am
     4     3     4    1
     5     3    32    1
     6     4     5    1
     7     4    33    1
     8     4    34    1
     9     5    10   ar
    10     5     6   ar
    11     6     7   ar
    12     6    35    1
    13     7     8   ar
    14     7    36    1
    15     8     9   ar
    16     8    37    1
    17     9    10   ar
    18     9    38    1
    19    10    11    1
    20    11    12    1
    21    11    39    1
    22    11    40    1
    23    12    16    1
    24    12    13    1
    25    13    14    2
    26    13    41    1
    27    14    15    1
    28    15    16    2
    29    15    42    1
    30    17    21    1
    31    17    18    1
    32    18    19    1
    33    18    43    1
    34    18    44    1
    35    19    20    1
    36    19    45    1
    37    19    46    1
    38    20    21    1
    39    20    47    1
    40    20    48    1
    41    21    22    1
    42    21    23    1
    43    23    31    1
    44    23    24    2
    45    24    25    1
    46    25    30   ar
    47    25    26   ar
    48    26    27   ar
    49    26    49    1
    50    27    28   ar
    51    27    50    1
    52    28    29   ar
    53    28    51    1
    54    29    30   ar
    55    29    52    1
    56    30    31    1
@<TRIPOS>SUBSTRUCTURE
     1 ZINC000045927156        1 TEMP              0 ****  ****    0 ROOT


##########                                Name:    ZINC000062882109
##########                DOCK_Rotatable_Bonds:                   8
##########                         Heavy_Atoms:                  31
##########                    Molecular_Weight:             424.497
##########                DOCK_Rotatable_Bonds:                   8
##########                       Formal_Charge:           0.0299993
##########                     HBond_Acceptors:                   7
##########                        HBond_Donors:                   1
##########                         Heavy_Atoms:                  31
##########                          Grid_Score:          -35.106018
##########                     Grid_vdw_energy:          -32.963036
##########                      Grid_es_energy:           -2.142981
##########           Internal_energy_repulsive:          180.568558

@<TRIPOS>MOLECULE
ZINC000062882109
 59 61 1 0 0
SMALL
USER_CHARGES


@<TRIPOS>ATOM
      1 C1        -18.7153   -1.4990   57.6149 C.3     1  ZINC000062882109   -0.2000
      2 C2        -18.2258   -0.9426   58.9271 C.2     1  ZINC000062882109    0.3900
      3 O3        -18.8339   -0.0448   59.4696 O.2     1  ZINC000062882109   -0.4500
      4 C4        -17.0095   -1.4891   59.5503 C.ar    1  ZINC000062882109   -0.1300
      5 C5        -16.5173   -0.9334   60.7354 C.ar    1  ZINC000062882109   -0.1100
      6 C6        -15.3770   -1.4489   61.3157 C.ar    1  ZINC000062882109   -0.0900
      7 C7        -14.7179   -2.5141   60.7297 C.ar    1  ZINC000062882109   -0.1800
      8 C8        -15.1982   -3.0732   59.5525 C.ar    1  ZINC000062882109    0.1200
      9 O9        -14.5452   -4.1200   58.9821 O.3     1  ZINC000062882109   -0.2800
     10 C10       -14.1550   -3.9741   57.6152 C.3     1  ZINC000062882109    0.0700
     11 H11       -14.9126   -3.4015   57.0802 H       1  ZINC000062882109    0.1000
     12 C12       -14.0139   -5.3565   56.9749 C.3     1  ZINC000062882109   -0.1800
     13 C13       -12.8350   -3.2505   57.5442 C.2     1  ZINC000062882109    0.5200
     14 O14       -11.8027   -3.8799   57.4479 O.2     1  ZINC000062882109   -0.4900
     15 N15       -12.8016   -1.9038   57.5877 N.am    1  ZINC000062882109   -0.6600
     16 C16       -11.5744   -1.2311   57.5217 C.ar    1  ZINC000062882109    0.1400
     17 C17       -11.0414   -0.8767   56.2897 C.ar    1  ZINC000062882109   -0.1000
     18 C18        -9.8306   -0.2147   56.2203 C.ar    1  ZINC000062882109   -0.1100
     19 C19        -9.1409    0.0993   57.3818 C.ar    1  ZINC000062882109    0.0800
     20 O20        -7.9460    0.7433   57.2998 O.3     1  ZINC000062882109   -0.3100
     21 C21        -7.4796    1.4319   58.4625 C.3     1  ZINC000062882109    0.0500
     22 C22        -7.5753    0.4871   59.6689 C.3     1  ZINC000062882109    0.0400
     23 N23        -8.9818    0.0691   59.7964 N.am    1  ZINC000062882109   -0.5500
     24 C24        -9.5818   -0.0017   61.0012 C.2     1  ZINC000062882109    0.5300
     25 O25       -10.7412   -0.3486   61.0819 O.2     1  ZINC000062882109   -0.5100
     26 C26        -8.8120    0.3501   62.2481 C.3     1  ZINC000062882109   -0.0800
     27 C27        -9.6631    0.0332   63.4794 C.3     1  ZINC000062882109   -0.1300
     28 C28        -7.5197   -0.4676   62.2973 C.3     1  ZINC000062882109   -0.1600
     29 C29        -8.4715    1.8416   62.2335 C.3     1  ZINC000062882109   -0.1500
     30 C30        -9.6770   -0.2528   58.6180 C.ar    1  ZINC000062882109    0.1000
     31 C31       -10.8923   -0.9129   58.6886 C.ar    1  ZINC000062882109   -0.1400
     32 C32       -16.3446   -2.5696   58.9632 C.ar    1  ZINC000062882109   -0.0900
     33 H33       -19.6212   -0.9734   57.3128 H       1  ZINC000062882109    0.0900
     34 H34       -17.9465   -1.3649   56.8539 H       1  ZINC000062882109    0.1000
     35 H35       -18.9323   -2.5611   57.7290 H       1  ZINC000062882109    0.1000
     36 H36       -17.0291   -0.1012   61.1956 H       1  ZINC000062882109    0.1400
     37 H37       -14.9973   -1.0189   62.2307 H       1  ZINC000062882109    0.1300
     38 H38       -13.8258   -2.9129   61.1894 H       1  ZINC000062882109    0.1300
     39 H39       -14.9687   -5.8799   57.0263 H       1  ZINC000062882109    0.0800
     40 H40       -13.7163   -5.2452   55.9321 H       1  ZINC000062882109    0.0800
     41 H41       -13.2564   -5.9292   57.5099 H       1  ZINC000062882109    0.0800
     42 H42       -13.6271   -1.4004   57.6646 H       1  ZINC000062882109    0.4100
     43 H43       -11.5749   -1.1195   55.3826 H       1  ZINC000062882109    0.1400
     44 H44        -9.4201    0.0585   55.2595 H       1  ZINC000062882109    0.1400
     45 H45        -6.4426    1.7342   58.3165 H       1  ZINC000062882109    0.1300
     46 H46        -8.0975    2.3124   58.6380 H       1  ZINC000062882109    0.0700
     47 H47        -6.9432   -0.3859   59.5062 H       1  ZINC000062882109    0.0900
     48 H48        -7.2610    1.0088   60.5730 H       1  ZINC000062882109    0.1300
     49 H49        -9.9057   -1.0293   63.4898 H       1  ZINC000062882109    0.0600
     50 H50        -9.1063    0.2877   64.3812 H       1  ZINC000062882109    0.0700
     51 H51       -10.5837    0.6158   63.4443 H       1  ZINC000062882109    0.0700
     52 H52        -6.9133   -0.2419   61.4202 H       1  ZINC000062882109    0.0700
     53 H53        -6.9629   -0.2132   63.1992 H       1  ZINC000062882109    0.0800
     54 H54        -7.7623   -1.5302   62.3077 H       1  ZINC000062882109    0.0600
     55 H55        -9.3787    2.4230   62.3980 H       1  ZINC000062882109    0.0700
     56 H56        -7.7529    2.0580   63.0240 H       1  ZINC000062882109    0.0800
     57 H57        -8.0403    2.1064   61.2680 H       1  ZINC000062882109    0.0700
     58 H58       -11.3064   -1.1836   59.6487 H       1  ZINC000062882109    0.1800
     59 H59       -16.7190   -3.0039   58.0480 H       1  ZINC000062882109    0.1400
@<TRIPOS>BOND
     1     1     2    1
     2     1    33    1
     3     1    34    1
     4     1    35    1
     5     2     3    2
     6     2     4    1
     7     4    32   ar
     8     4     5   ar
     9     5     6   ar
    10     5    36    1
    11     6     7   ar
    12     6    37    1
    13     7     8   ar
    14     7    38    1
    15     8     9    1
    16     8    32   ar
    17     9    10    1
    18    10    11    1
    19    10    12    1
    20    10    13    1
    21    12    39    1
    22    12    40    1
    23    12    41    1
    24    13    14    2
    25    13    15   am
    26    15    16    1
    27    15    42    1
    28    16    31   ar
    29    16    17   ar
    30    17    18   ar
    31    17    43    1
    32    18    19   ar
    33    18    44    1
    34    19    30   ar
    35    19    20    1
    36    20    21    1
    37    21    22    1
    38    21    45    1
    39    21    46    1
    40    22    23    1
    41    22    47    1
    42    22    48    1
    43    23    24   am
    44    23    30    1
    45    24    25    2
    46    24    26    1
    47    26    27    1
    48    26    28    1
    49    26    29    1
    50    27    49    1
    51    27    50    1
    52    27    51    1
    53    28    52    1
    54    28    53    1
    55    28    54    1
    56    29    55    1
    57    29    56    1
    58    29    57    1
    59    30    31   ar
    60    31    58    1
    61    32    59    1
@<TRIPOS>SUBSTRUCTURE
     1 ZINC000062882109        1 TEMP              0 ****  ****    0 ROOT


##########                                Name:     oleObject42.pdb
##########                DOCK_Rotatable_Bonds:                   9
##########                         Heavy_Atoms:                  36
##########                    Molecular_Weight:             527.493
##########                DOCK_Rotatable_Bonds:                   9
##########                       Formal_Charge:         9.99384e-05
##########                     HBond_Acceptors:                   8
##########                        HBond_Donors:                   0
##########                         Heavy_Atoms:                  36
##########                          Grid_Score:          -35.092381
##########                     Grid_vdw_energy:          -35.549850
##########                      Grid_es_energy:            0.457468
##########           Internal_energy_repulsive:           34.624378

@<TRIPOS>MOLECULE
oleObject42.pdb
 68 71 1 0 0
SMALL
NO_CHARGES


@<TRIPOS>ATOM
      1 C          -6.9523    1.3019   62.4185 C.ar    1  UNL        -0.0435
      2 C          -7.2388    0.0315   61.8984 C.ar    1  UNL        -0.0559
      3 C          -7.5998   -0.0901   60.5433 C.ar    1  UNL        -0.0272
      4 C          -7.6602    1.0858   59.7536 C.ar    1  UNL         0.0699
      5 N          -7.3812    2.3060   60.2686 N.ar    1  UNL        -0.2586
      6 C          -7.0364    2.4120   61.5654 C.ar    1  UNL         0.0272
      7 C          -8.0444    1.0400   58.2647 C.3     1  UNL         0.1101
      8 C          -9.4644    0.4939   58.0190 C.ar    1  UNL         0.0699
      9 C         -10.5543    0.8768   58.8409 C.ar    1  UNL        -0.0272
     10 C         -11.8235    0.3323   58.5682 C.ar    1  UNL        -0.0559
     11 C         -11.9672   -0.5658   57.5009 C.ar    1  UNL        -0.0435
     12 C         -10.8347   -0.8924   56.7407 C.ar    1  UNL         0.0272
     13 N          -9.6171   -0.3781   56.9946 N.ar    1  UNL        -0.2586
     14 C         -10.3942    1.8531   60.0013 C.3     1  UNL        -0.0379
     15 N          -7.7448    2.3134   57.5528 N.am    1  UNL        -0.2902
     16 C          -6.4510    2.6997   57.2003 C.2     1  UNL         0.2180
     17 O          -5.4860    2.1357   57.6895 O.2     1  UNL        -0.2772
     18 C          -6.2946    4.0520   56.4626 C.3     1  UNL         0.0385
     19 C          -6.5553    3.8990   54.9446 C.3     1  UNL        -0.0289
     20 C          -5.3830    3.2072   54.2167 C.3     1  UNL        -0.0010
     21 N          -4.1044    3.9091   54.4612 N.4     1  UNL        -0.3010
     22 C          -3.7656    4.0582   55.8939 C.3     1  UNL        -0.0010
     23 C          -4.9118    4.7136   56.7014 C.3     1  UNL        -0.0289
     24 C          -2.9833    3.4265   53.6245 C.3     1  UNL         0.0222
     25 C          -3.2289    3.5616   52.1050 C.3     1  UNL         0.0661
     26 O          -1.9899    3.2871   51.4327 O.3     1  UNL        -0.3432
     27 C          -1.9764    3.2286   50.0608 C.ar    1  UNL         0.0937
     28 C          -2.6464    2.1753   49.4159 C.ar    1  UNL        -0.0288
     29 C          -2.6437    2.0940   48.0135 C.ar    1  UNL        -0.0408
     30 C          -1.9674    3.0657   47.2571 C.ar    1  UNL         0.0422
     31 C          -1.2921    4.1171   47.8992 C.ar    1  UNL        -0.0221
     32 C          -1.2938    4.2004   49.3018 C.ar    1  UNL         0.0723
     33 CL         -0.4391    5.5199   50.0792 Cl      1  UNL        -0.0814
     34 CL         -1.9636    2.9644   45.5093 Cl      1  UNL        -0.0843
     35 C          -8.8740    3.2481   57.3731 C.3     1  UNL         0.0038
     36 C          -7.9083   -1.4707   59.9741 C.3     1  UNL        -0.0379
     37 H          -6.6699    1.4243   63.4600 H       1  UNL         0.0639
     38 H          -7.1791   -0.8440   62.5390 H       1  UNL         0.0627
     39 H          -6.8208    3.4159   61.9291 H       1  UNL         0.0840
     40 H          -7.3759    0.2970   57.8224 H       1  UNL         0.0643
     41 H         -12.6856    0.6008   59.1722 H       1  UNL         0.0627
     42 H         -12.9348   -0.9999   57.2672 H       1  UNL         0.0639
     43 H         -10.9028   -1.5859   55.9035 H       1  UNL         0.0840
     44 H          -9.7291    1.4449   60.7723 H       1  UNL         0.0280
     45 H         -11.3564    2.0704   60.4815 H       1  UNL         0.0280
     46 H          -9.9778    2.8094   59.6618 H       1  UNL         0.0280
     47 H          -7.0361    4.7519   56.8609 H       1  UNL         0.0402
     48 H          -6.7026    4.8944   54.5059 H       1  UNL         0.0288
     49 H          -7.4812    3.3384   54.7696 H       1  UNL         0.0288
     50 H          -5.5983    3.1892   53.1406 H       1  UNL         0.0431
     51 H          -5.3145    2.1674   54.5611 H       1  UNL         0.0431
     52 H          -2.8653    4.6769   55.9996 H       1  UNL         0.0431
     53 H          -3.5387    3.0774   56.3281 H       1  UNL         0.0431
     54 H          -4.9760    5.7695   56.4084 H       1  UNL         0.0288
     55 H          -4.6694    4.7016   57.7718 H       1  UNL         0.0288
     56 H          -2.7877    2.3713   53.8540 H       1  UNL         0.0455
     57 H          -2.0746    3.9860   53.8811 H       1  UNL         0.0455
     58 H          -3.5671    4.5776   51.8668 H       1  UNL         0.0586
     59 H          -3.9980    2.8503   51.7797 H       1  UNL         0.0586
     60 H          -3.1669    1.4245   50.0033 H       1  UNL         0.0652
     61 H          -3.1635    1.2800   47.5160 H       1  UNL         0.0639
     62 H          -0.7678    4.8651   47.3112 H       1  UNL         0.0655
     63 H          -9.8169    2.6979   57.2640 H       1  UNL         0.0433
     64 H          -8.7206    3.8520   56.4698 H       1  UNL         0.0433
     65 H          -8.9434    3.9144   58.2420 H       1  UNL         0.0433
     66 H          -7.7689   -2.2575   60.7259 H       1  UNL         0.0280
     67 H          -7.2500   -1.7092   59.1300 H       1  UNL         0.0280
     68 H          -8.9468   -1.5322   59.6269 H       1  UNL         0.0280
@<TRIPOS>BOND
     1     1     2   ar
     2     1     6   ar
     3     1    37    1
     4     2     3   ar
     5     2    38    1
     6     3     4   ar
     7     3    36    1
     8     4     5   ar
     9     4     7    1
    10     5     6   ar
    11     6    39    1
    12     7     8    1
    13     7    15    1
    14     7    40    1
    15     8     9   ar
    16     8    13   ar
    17     9    10   ar
    18     9    14    1
    19    10    11   ar
    20    10    41    1
    21    11    12   ar
    22    11    42    1
    23    12    13   ar
    24    12    43    1
    25    14    44    1
    26    14    45    1
    27    14    46    1
    28    15    16   am
    29    15    35    1
    30    16    17    2
    31    16    18    1
    32    18    19    1
    33    18    23    1
    34    18    47    1
    35    19    20    1
    36    19    48    1
    37    19    49    1
    38    20    21    1
    39    20    50    1
    40    20    51    1
    41    21    22    1
    42    21    24    1
    43    22    23    1
    44    22    52    1
    45    22    53    1
    46    23    54    1
    47    23    55    1
    48    24    25    1
    49    24    56    1
    50    24    57    1
    51    25    26    1
    52    25    58    1
    53    25    59    1
    54    26    27    1
    55    27    28   ar
    56    27    32   ar
    57    28    29   ar
    58    28    60    1
    59    29    30   ar
    60    29    61    1
    61    30    31   ar
    62    30    34    1
    63    31    32   ar
    64    31    62    1
    65    32    33    1
    66    35    63    1
    67    35    64    1
    68    35    65    1
    69    36    66    1
    70    36    67    1
    71    36    68    1
@<TRIPOS>SUBSTRUCTURE
     1 UNL         1 TEMP              0 ****  ****    0 ROOT


##########                                Name:    ZINC000428266315
##########                DOCK_Rotatable_Bonds:                  10
##########                         Heavy_Atoms:                  30
##########                    Molecular_Weight:             423.438
##########                DOCK_Rotatable_Bonds:                  10
##########                       Formal_Charge:          0.00999977
##########                     HBond_Acceptors:                  10
##########                        HBond_Donors:                   0
##########                         Heavy_Atoms:                  30
##########                          Grid_Score:          -35.088741
##########                     Grid_vdw_energy:          -33.639954
##########                      Grid_es_energy:           -1.448787
##########           Internal_energy_repulsive:           21.503136

@<TRIPOS>MOLECULE
ZINC000428266315
 54 56 1 0 0
SMALL
USER_CHARGES


@<TRIPOS>ATOM
      1 C1         -6.0148    2.8734   57.0455 C.3     1  ZINC000428266315   -0.1500
      2 C2         -4.7602    2.5461   56.2331 C.3     1  ZINC000428266315    0.0600
      3 O3         -3.9451    3.7148   56.1239 O.3     1  ZINC000428266315   -0.3700
      4 C4         -2.8077    3.5528   55.2741 C.3     1  ZINC000428266315    0.1800
      5 H5         -2.0252    4.2482   55.5778 H       1  ZINC000428266315    0.0900
      6 C6         -2.2871    2.1185   55.3867 C.3     1  ZINC000428266315   -0.1700
      7 C7         -3.2028    3.8332   53.8471 C.2     1  ZINC000428266315    0.1700
      8 N8         -4.3473    3.5565   53.2974 N.2     1  ZINC000428266315   -0.3500
      9 O9         -4.3516    3.9083   52.1366 O.3     1  ZINC000428266315    0.0800
     10 C10        -3.1745    4.4597   51.8261 C.2     1  ZINC000428266315    0.1900
     11 C11        -2.7727    5.0233   50.4874 C.3     1  ZINC000428266315    0.1500
     12 N12        -2.0041    4.0167   49.7431 N.3     1  ZINC000428266315   -0.5300
     13 C13        -0.6076    3.9789   50.1973 C.3     1  ZINC000428266315    0.0200
     14 C14        -2.6289    2.6916   49.8510 C.3     1  ZINC000428266315    0.1400
     15 C15        -2.2787    1.8709   48.6366 C.2     1  ZINC000428266315   -0.2300
     16 C16        -2.2301    2.3181   47.3604 C.2     1  ZINC000428266315    0.0800
     17 N17        -1.8796    1.2793   46.5735 N.pl3   1  ZINC000428266315   -0.3700
     18 C18        -1.7092    1.3188   45.1190 C.3     1  ZINC000428266315    0.1700
     19 C19        -0.2398    1.3054   44.7849 C.ar    1  ZINC000428266315   -0.0800
     20 C20         0.6615    1.9589   45.6043 C.ar    1  ZINC000428266315   -0.1000
     21 C21         2.0093    1.9466   45.2978 C.ar    1  ZINC000428266315   -0.0700
     22 C22         2.4560    1.2803   44.1720 C.ar    1  ZINC000428266315   -0.1700
     23 C23         3.9254    1.2673   43.8375 C.3     1  ZINC000428266315    0.5100
     24 F24         4.1200    1.8260   42.5697 F       1  ZINC000428266315   -0.1700
     25 F25         4.6270    2.0151   44.7893 F       1  ZINC000428266315   -0.1800
     26 F26         4.3932   -0.0511   43.8428 F       1  ZINC000428266315   -0.1800
     27 C27         1.5549    0.6257   43.3532 C.ar    1  ZINC000428266315   -0.0700
     28 C28         0.2075    0.6348   43.6619 C.ar    1  ZINC000428266315   -0.0800
     29 N29        -1.7071    0.1565   47.3933 N.2     1  ZINC000428266315   -0.2900
     30 C30        -1.9406    0.5136   48.6301 C.2     1  ZINC000428266315    0.0600
     31 N31        -2.4377    4.4211   52.9101 N.2     1  ZINC000428266315   -0.4600
     32 H32        -6.6365    1.9820   57.1287 H       1  ZINC000428266315    0.0700
     33 H33        -5.7254    3.2089   58.0413 H       1  ZINC000428266315    0.0600
     34 H34        -6.5760    3.6625   56.5451 H       1  ZINC000428266315    0.0600
     35 H35        -4.1989    1.7570   56.7335 H       1  ZINC000428266315    0.0500
     36 H36        -5.0496    2.2106   55.2372 H       1  ZINC000428266315    0.0500
     37 H37        -3.0696    1.4231   55.0830 H       1  ZINC000428266315    0.0700
     38 H38        -1.4196    1.9949   54.7385 H       1  ZINC000428266315    0.0700
     39 H39        -2.0013    1.9157   56.4189 H       1  ZINC000428266315    0.0700
     40 H40        -3.6660    5.2895   49.9223 H       1  ZINC000428266315    0.0800
     41 H41        -2.1591    5.9117   50.6367 H       1  ZINC000428266315    0.1200
     42 H42        -0.5771    3.7282   51.2578 H       1  ZINC000428266315    0.0400
     43 H43        -0.0613    3.2254   49.6301 H       1  ZINC000428266315    0.0800
     44 H44        -0.1483    4.9550   50.0415 H       1  ZINC000428266315    0.0600
     45 H45        -2.2633    2.1894   50.7467 H       1  ZINC000428266315    0.0500
     46 H46        -3.7112    2.8042   49.9136 H       1  ZINC000428266315    0.0900
     47 H47        -2.4352    3.3259   47.0306 H       1  ZINC000428266315    0.1700
     48 H48        -2.1912    0.4490   44.6729 H       1  ZINC000428266315    0.1000
     49 H49        -2.1631    2.2280   44.7246 H       1  ZINC000428266315    0.1100
     50 H50         0.3124    2.4794   46.4839 H       1  ZINC000428266315    0.1300
     51 H51         2.7134    2.4577   45.9377 H       1  ZINC000428266315    0.1400
     52 H52         1.9040    0.1049   42.4738 H       1  ZINC000428266315    0.1400
     53 H53        -0.4965    0.1233   43.0222 H       1  ZINC000428266315    0.1400
     54 H54        -1.8889   -0.1302   49.4957 H       1  ZINC000428266315    0.1800
@<TRIPOS>BOND
     1     1     2    1
     2     1    32    1
     3     1    33    1
     4     1    34    1
     5     2     3    1
     6     2    35    1
     7     2    36    1
     8     3     4    1
     9     4     5    1
    10     4     6    1
    11     4     7    1
    12     6    37    1
    13     6    38    1
    14     6    39    1
    15     7    31    1
    16     7     8    2
    17     8     9    1
    18     9    10    1
    19    10    11    1
    20    10    31    2
    21    11    12    1
    22    11    40    1
    23    11    41    1
    24    12    13    1
    25    12    14    1
    26    13    42    1
    27    13    43    1
    28    13    44    1
    29    14    15    1
    30    14    45    1
    31    14    46    1
    32    15    30    1
    33    15    16    2
    34    16    17    1
    35    16    47    1
    36    17    18    1
    37    17    29    1
    38    18    19    1
    39    18    48    1
    40    18    49    1
    41    19    28   ar
    42    19    20   ar
    43    20    21   ar
    44    20    50    1
    45    21    22   ar
    46    21    51    1
    47    22    23    1
    48    22    27   ar
    49    23    24    1
    50    23    25    1
    51    23    26    1
    52    27    28   ar
    53    27    52    1
    54    28    53    1
    55    29    30    2
    56    30    54    1
@<TRIPOS>SUBSTRUCTURE
     1 ZINC000428266315        1 TEMP              0 ****  ****    0 ROOT


##########                                Name:     oleObject52.pdb
##########                DOCK_Rotatable_Bonds:                  10
##########                         Heavy_Atoms:                  38
##########                    Molecular_Weight:              533.07
##########                DOCK_Rotatable_Bonds:                  10
##########                       Formal_Charge:         0.000300027
##########                     HBond_Acceptors:                   8
##########                        HBond_Donors:                   0
##########                         Heavy_Atoms:                  38
##########                          Grid_Score:          -35.071049
##########                     Grid_vdw_energy:          -34.680977
##########                      Grid_es_energy:           -0.390072
##########           Internal_energy_repulsive:           27.892130

@<TRIPOS>MOLECULE
oleObject52.pdb
 71 74 1 0 0
SMALL
NO_CHARGES


@<TRIPOS>ATOM
      1 C          -9.5856    0.0299   51.9840 C.ar    1  UNL        -0.0596
      2 C         -10.6168    0.5874   52.7548 C.ar    1  UNL        -0.0314
      3 C         -10.3223    1.5154   53.7764 C.ar    1  UNL         0.0800
      4 C          -8.9806    1.8886   54.0234 C.ar    1  UNL         0.0089
      5 C          -7.9538    1.3145   53.2434 C.ar    1  UNL        -0.0541
      6 C          -8.2543    0.3926   52.2295 C.ar    1  UNL        -0.0617
      7 C          -8.6675    2.8955   55.1407 C.3     1  UNL         0.0953
      8 C          -9.4756    2.6222   56.4214 C.ar    1  UNL         0.0684
      9 C         -10.1096    3.6644   57.1435 C.ar    1  UNL        -0.0272
     10 C         -10.8406    3.3306   58.2991 C.ar    1  UNL        -0.0559
     11 C         -10.9188    1.9877   58.6947 C.ar    1  UNL        -0.0435
     12 C         -10.2640    1.0195   57.9190 C.ar    1  UNL         0.0272
     13 N          -9.5626    1.3284   56.8126 N.ar    1  UNL        -0.2587
     14 C         -10.0383    5.1211   56.7017 C.3     1  UNL        -0.0379
     15 N          -7.2120    3.1245   55.3684 N.am    1  UNL        -0.2917
     16 C          -6.5114    4.0442   54.5806 C.2     1  UNL         0.2180
     17 O          -7.1140    4.8479   53.8887 O.2     1  UNL        -0.2772
     18 C          -5.0008    4.2290   54.8754 C.3     1  UNL         0.0385
     19 C          -4.5095    5.6534   54.5208 C.3     1  UNL        -0.0289
     20 C          -4.3902    5.8637   52.9959 C.3     1  UNL        -0.0010
     21 N          -3.4958    4.8582   52.3766 N.4     1  UNL        -0.3010
     22 C          -3.9201    3.4670   52.6473 C.3     1  UNL        -0.0010
     23 C          -4.1073    3.1826   54.1580 C.3     1  UNL        -0.0289
     24 C          -3.2446    5.0732   50.9341 C.3     1  UNL         0.0222
     25 C          -2.6874    3.8274   50.2148 C.3     1  UNL         0.0661
     26 O          -2.2314    4.2390   48.9138 O.3     1  UNL        -0.3432
     27 C          -1.9087    3.3558   47.9017 C.ar    1  UNL         0.0937
     28 C          -2.1061    1.9649   48.0310 C.ar    1  UNL        -0.0289
     29 C          -1.7644    1.1012   46.9770 C.ar    1  UNL        -0.0417
     30 C          -1.2236    1.6163   45.7863 C.ar    1  UNL         0.0537
     31 C          -1.0258    3.0011   45.6534 C.ar    1  UNL        -0.0230
     32 C          -1.3666    3.8673   46.7056 C.ar    1  UNL         0.0721
     33 CL         -1.1045    5.5892   46.5016 Cl      1  UNL        -0.0814
     34 C          -0.8753    0.7323   44.7115 C.1     1  UNL         0.0992
     35 N          -0.5965    0.0112   43.8514 N.1     1  UNL        -0.1924
     36 C          -6.5611    2.3151   56.4215 C.3     1  UNL         0.0037
     37 O         -11.3214    2.0726   54.5563 O.3     1  UNL        -0.3490
     38 C         -12.7179    1.7678   54.4030 C.3     1  UNL         0.0422
     39 H          -9.8187   -0.6839   51.1992 H       1  UNL         0.0624
     40 H         -11.6393    0.2896   52.5489 H       1  UNL         0.0651
     41 H          -6.9158    1.5769   53.4169 H       1  UNL         0.0627
     42 H          -7.4547   -0.0404   51.6353 H       1  UNL         0.0623
     43 H          -9.0449    3.8498   54.7567 H       1  UNL         0.0627
     44 H         -11.3449    4.0984   58.8789 H       1  UNL         0.0627
     45 H         -11.4782    1.7017   59.5804 H       1  UNL         0.0639
     46 H         -10.3039   -0.0350   58.1891 H       1  UNL         0.0840
     47 H          -9.0026    5.4321   56.5289 H       1  UNL         0.0280
     48 H         -10.4604    5.7953   57.4572 H       1  UNL         0.0280
     49 H         -10.5985    5.2753   55.7709 H       1  UNL         0.0280
     50 H          -4.8481    4.0742   55.9486 H       1  UNL         0.0402
     51 H          -3.5227    5.8133   54.9742 H       1  UNL         0.0288
     52 H          -5.1738    6.4114   54.9515 H       1  UNL         0.0288
     53 H          -4.0088    6.8771   52.8261 H       1  UNL         0.0431
     54 H          -5.3881    5.8005   52.5418 H       1  UNL         0.0431
     55 H          -3.1710    2.7679   52.2538 H       1  UNL         0.0431
     56 H          -4.8602    3.2633   52.1195 H       1  UNL         0.0431
     57 H          -3.1170    3.1852   54.6316 H       1  UNL         0.0288
     58 H          -4.5171    2.1744   54.3002 H       1  UNL         0.0288
     59 H          -2.5457    5.9089   50.7970 H       1  UNL         0.0455
     60 H          -4.1867    5.3478   50.4418 H       1  UNL         0.0455
     61 H          -3.4816    3.0760   50.1192 H       1  UNL         0.0586
     62 H          -1.8537    3.4011   50.7856 H       1  UNL         0.0586
     63 H          -2.5225    1.5422   48.9396 H       1  UNL         0.0651
     64 H          -1.9210    0.0312   47.0874 H       1  UNL         0.0638
     65 H          -0.6081    3.4072   44.7357 H       1  UNL         0.0653
     66 H          -7.0824    1.3606   56.5558 H       1  UNL         0.0433
     67 H          -6.5685    2.8619   57.3725 H       1  UNL         0.0433
     68 H          -5.5276    2.0814   56.1409 H       1  UNL         0.0433
     69 H         -13.3029    2.3285   55.1423 H       1  UNL         0.0535
     70 H         -12.8959    0.6963   54.5592 H       1  UNL         0.0535
     71 H         -13.0644    2.0489   53.4006 H       1  UNL         0.0535
@<TRIPOS>BOND
     1     1     2   ar
     2     1     6   ar
     3     1    39    1
     4     2     3   ar
     5     2    40    1
     6     3     4   ar
     7     3    37    1
     8     4     5   ar
     9     4     7    1
    10     5     6   ar
    11     5    41    1
    12     6    42    1
    13     7     8    1
    14     7    15    1
    15     7    43    1
    16     8     9   ar
    17     8    13   ar
    18     9    10   ar
    19     9    14    1
    20    10    11   ar
    21    10    44    1
    22    11    12   ar
    23    11    45    1
    24    12    13   ar
    25    12    46    1
    26    14    47    1
    27    14    48    1
    28    14    49    1
    29    15    16   am
    30    15    36    1
    31    16    17    2
    32    16    18    1
    33    18    19    1
    34    18    23    1
    35    18    50    1
    36    19    20    1
    37    19    51    1
    38    19    52    1
    39    20    21    1
    40    20    53    1
    41    20    54    1
    42    21    22    1
    43    21    24    1
    44    22    23    1
    45    22    55    1
    46    22    56    1
    47    23    57    1
    48    23    58    1
    49    24    25    1
    50    24    59    1
    51    24    60    1
    52    25    26    1
    53    25    61    1
    54    25    62    1
    55    26    27    1
    56    27    28   ar
    57    27    32   ar
    58    28    29   ar
    59    28    63    1
    60    29    30   ar
    61    29    64    1
    62    30    31   ar
    63    30    34    1
    64    31    32   ar
    65    31    65    1
    66    32    33    1
    67    34    35    3
    68    36    66    1
    69    36    67    1
    70    36    68    1
    71    37    38    1
    72    38    69    1
    73    38    70    1
    74    38    71    1
@<TRIPOS>SUBSTRUCTURE
     1 UNL         1 TEMP              0 ****  ****    0 ROOT


##########                                Name:    ZINC000583220082
##########                DOCK_Rotatable_Bonds:                   9
##########                         Heavy_Atoms:                  29
##########                    Molecular_Weight:             417.492
##########                DOCK_Rotatable_Bonds:                   9
##########                       Formal_Charge:          -0.0400006
##########                     HBond_Acceptors:                  11
##########                        HBond_Donors:                   3
##########                         Heavy_Atoms:                  29
##########                          Grid_Score:          -35.049747
##########                     Grid_vdw_energy:          -33.081997
##########                      Grid_es_energy:           -1.967750
##########           Internal_energy_repulsive:           16.589828

@<TRIPOS>MOLECULE
ZINC000583220082
 52 54 1 0 0
SMALL
USER_CHARGES


@<TRIPOS>ATOM
      1 C1         -6.3704    2.2620   58.5586 C.3     1  ZINC000583220082    0.0800
      2 N2         -7.0773    2.0289   57.2968 N.am    1  ZINC000583220082   -0.6300
      3 C3         -8.1267    1.0095   57.2225 C.3     1  ZINC000583220082    0.0800
      4 C4         -6.7622    2.7526   56.2043 C.2     1  ZINC000583220082    0.5100
      5 O5         -7.3464    2.5587   55.1592 O.2     1  ZINC000583220082   -0.5300
      6 C6         -5.6841    3.8026   56.2812 C.3     1  ZINC000583220082   -0.1000
      7 C7         -5.1832    4.1111   54.8937 C.ar    1  ZINC000583220082   -0.0800
      8 C8         -5.5124    5.3123   54.2927 C.ar    1  ZINC000583220082   -0.0800
      9 C9         -5.0552    5.5982   53.0214 C.ar    1  ZINC000583220082   -0.1400
     10 C10        -4.2631    4.6778   52.3465 C.ar    1  ZINC000583220082    0.1400
     11 N11        -3.7983    4.9640   51.0602 N.am    1  ZINC000583220082   -0.6400
     12 C12        -2.4751    5.0805   50.8322 C.2     1  ZINC000583220082    0.5100
     13 O13        -1.6872    4.9367   51.7441 O.2     1  ZINC000583220082   -0.4900
     14 C14        -1.9784    5.3865   49.4573 C.2     1  ZINC000583220082    0.5100
     15 O15        -2.2513    6.4477   48.9356 O.2     1  ZINC000583220082   -0.5100
     16 N16        -1.2268    4.4841   48.7960 N.am    1  ZINC000583220082   -0.5800
     17 C17        -0.8896    3.1896   49.4073 C.3     1  ZINC000583220082    0.0600
     18 C18        -1.2479    2.0758   48.4177 C.3     1  ZINC000583220082    0.0300
     19 N19        -0.5965    2.3424   47.1284 N.3     1  ZINC000583220082   -0.4300
     20 C20        -0.7630    1.2795   46.2599 C.2     1  ZINC000583220082    0.2900
     21 N21        -0.4586    1.2367   44.9800 N.2     1  ZINC000583220082   -0.5700
     22 C22        -0.7075    0.1080   44.3485 C.2     1  ZINC000583220082    0.5400
     23 N23        -0.4208   -0.0383   42.9919 N.pl3   1  ZINC000583220082   -0.8200
     24 N24        -1.2322   -0.8696   45.0381 N.2     1  ZINC000583220082   -0.5500
     25 S25        -1.4066   -0.2771   46.6211 S.3     1  ZINC000583220082    0.2000
     26 C26        -1.0874    3.5917   46.5315 C.3     1  ZINC000583220082    0.0500
     27 C27        -0.7275    4.7652   47.4414 C.3     1  ZINC000583220082    0.1100
     28 C28        -3.9339    3.4722   52.9535 C.ar    1  ZINC000583220082   -0.1200
     29 C29        -4.3907    3.1949   54.2268 C.ar    1  ZINC000583220082   -0.0800
     30 H30        -5.4933    1.6167   58.6083 H       1  ZINC000583220082    0.0500
     31 H31        -6.0577    3.3048   58.6128 H       1  ZINC000583220082    0.0800
     32 H32        -7.0342    2.0380   59.3937 H       1  ZINC000583220082    0.0700
     33 H33        -8.2394    0.5325   58.1961 H       1  ZINC000583220082    0.0800
     34 H34        -9.0684    1.4776   56.9361 H       1  ZINC000583220082    0.0600
     35 H35        -7.8531    0.2598   56.4802 H       1  ZINC000583220082    0.0600
     36 H36        -6.0906    4.7086   56.7305 H       1  ZINC000583220082    0.1000
     37 H37        -4.8598    3.4330   56.8912 H       1  ZINC000583220082    0.1000
     38 H38        -6.1282    6.0274   54.8180 H       1  ZINC000583220082    0.1300
     39 H39        -5.3132    6.5362   52.5523 H       1  ZINC000583220082    0.1300
     40 H40        -4.4280    5.0789   50.3314 H       1  ZINC000583220082    0.4200
     41 H41         0.1776    3.1551   49.6266 H       1  ZINC000583220082    0.0900
     42 H42        -1.4596    3.0594   50.3272 H       1  ZINC000583220082    0.1700
     43 H43        -0.9039    1.1179   48.8079 H       1  ZINC000583220082    0.1100
     44 H44        -2.3287    2.0456   48.2797 H       1  ZINC000583220082    0.0700
     45 H45         0.1115   -0.7897   42.6870 H       1  ZINC000583220082    0.4200
     46 H46        -0.7538    0.6112   42.3530 H       1  ZINC000583220082    0.4200
     47 H47        -0.6267    3.7333   45.5538 H       1  ZINC000583220082    0.1100
     48 H48        -2.1704    3.5405   46.4199 H       1  ZINC000583220082    0.0600
     49 H49        -1.1877    5.6774   47.0618 H       1  ZINC000583220082    0.1100
     50 H50         0.3555    4.8842   47.4743 H       1  ZINC000583220082    0.0900
     51 H51        -3.3183    2.7545   52.4316 H       1  ZINC000583220082    0.1400
     52 H52        -4.1351    2.2579   54.6993 H       1  ZINC000583220082    0.1300
@<TRIPOS>BOND
     1     1     2    1
     2     1    30    1
     3     1    31    1
     4     1    32    1
     5     2     3    1
     6     2     4   am
     7     3    33    1
     8     3    34    1
     9     3    35    1
    10     4     5    2
    11     4     6    1
    12     6     7    1
    13     6    36    1
    14     6    37    1
    15     7    29   ar
    16     7     8   ar
    17     8     9   ar
    18     8    38    1
    19     9    10   ar
    20     9    39    1
    21    10    11    1
    22    10    28   ar
    23    11    12   am
    24    11    40    1
    25    12    13    2
    26    12    14    1
    27    14    15    2
    28    14    16   am
    29    16    27    1
    30    16    17    1
    31    17    18    1
    32    17    41    1
    33    17    42    1
    34    18    19    1
    35    18    43    1
    36    18    44    1
    37    19    20    1
    38    19    26    1
    39    20    25    1
    40    20    21    2
    41    21    22    1
    42    22    23    1
    43    22    24    2
    44    23    45    1
    45    23    46    1
    46    24    25    1
    47    26    27    1
    48    26    47    1
    49    26    48    1
    50    27    49    1
    51    27    50    1
    52    28    29   ar
    53    28    51    1
    54    29    52    1
@<TRIPOS>SUBSTRUCTURE
     1 ZINC000583220082        1 TEMP              0 ****  ****    0 ROOT


##########                                Name:    ZINC001109082135
##########                DOCK_Rotatable_Bonds:                   9
##########                         Heavy_Atoms:                  27
##########                    Molecular_Weight:             373.455
##########                DOCK_Rotatable_Bonds:                   9
##########                       Formal_Charge:          -0.0100003
##########                     HBond_Acceptors:                   8
##########                        HBond_Donors:                   3
##########                         Heavy_Atoms:                  27
##########                          Grid_Score:          -35.034550
##########                     Grid_vdw_energy:          -33.878685
##########                      Grid_es_energy:           -1.155864
##########           Internal_energy_repulsive:           21.348682

@<TRIPOS>MOLECULE
ZINC001109082135
 54 57 1 0 0
SMALL
USER_CHARGES


@<TRIPOS>ATOM
      1 C1         -3.9317    2.8369   67.6665 C.3     1  ZINC001109082135   -0.1400
      2 C2         -4.1087    1.3568   67.3219 C.3     1  ZINC001109082135   -0.1400
      3 C3         -4.2700    1.2040   65.8313 C.2     1  ZINC001109082135    0.5100
      4 O4         -3.2944    1.0424   65.1292 O.2     1  ZINC001109082135   -0.5400
      5 N5         -5.4984    1.2468   65.2785 N.am    1  ZINC001109082135   -0.7200
      6 C6         -5.6551    1.1000   63.8293 C.3     1  ZINC001109082135    0.1000
      7 C7         -7.0087    0.5102   63.5277 C.2     1  ZINC001109082135    0.5100
      8 O8         -7.9356    0.6996   64.2866 O.2     1  ZINC001109082135   -0.5300
      9 N9         -7.1892   -0.2279   62.4144 N.am    1  ZINC001109082135   -0.7100
     10 C10        -8.5055   -0.7998   62.1203 C.3     1  ZINC001109082135    0.1100
     11 H11        -8.8986   -1.3233   62.9919 H       1  ZINC001109082135    0.0900
     12 C12        -9.4883    0.3038   61.6582 C.3     1  ZINC001109082135   -0.1600
     13 C13        -9.8719   -0.1323   60.2118 C.3     1  ZINC001109082135    0.0600
     14 H14       -10.8035    0.2823   59.8268 H       1  ZINC001109082135    0.1300
     15 C15        -8.6027    0.1533   59.3537 C.3     1  ZINC001109082135   -0.1200
     16 C16        -7.6047   -0.9397   59.8085 C.3     1  ZINC001109082135   -0.1100
     17 C17        -8.4256   -1.7585   60.8942 C.3     1  ZINC001109082135    0.0400
     18 H18        -8.0689   -2.7697   61.0899 H       1  ZINC001109082135    0.1200
     19 N19        -9.8234   -1.6324   60.3408 N.3     1  ZINC001109082135   -0.4800
     20 C20       -10.8173   -2.1240   61.3044 C.3     1  ZINC001109082135    0.0800
     21 C21       -12.1159   -2.3985   60.5906 C.2     1  ZINC001109082135    0.2000
     22 C22       -13.3010   -2.1007   61.1922 C.2     1  ZINC001109082135   -0.2900
     23 C23       -14.4976   -2.3698   60.4963 C.2     1  ZINC001109082135    0.5200
     24 O24       -15.5804   -2.1181   60.9984 O.2     1  ZINC001109082135   -0.5400
     25 N25       -14.4192   -2.9116   59.2620 N.am    1  ZINC001109082135   -0.6300
     26 C26       -13.2146   -3.1829   58.7224 C.2     1  ZINC001109082135    0.4300
     27 C27       -13.1445   -3.7875   57.3438 C.3     1  ZINC001109082135   -0.1400
     28 C28       -13.8378   -5.1342   57.1271 C.3     1  ZINC001109082135   -0.1400
     29 C29       -14.4425   -3.8586   56.5369 C.3     1  ZINC001109082135   -0.1400
     30 N30       -12.1061   -2.9288   59.3652 N.2     1  ZINC001109082135   -0.5300
     31 H31        -4.8086    3.3941   67.3370 H       1  ZINC001109082135    0.0600
     32 H32        -3.8149    2.9475   68.7446 H       1  ZINC001109082135    0.0600
     33 H33        -3.0454    3.2237   67.1636 H       1  ZINC001109082135    0.0600
     34 H34        -3.2317    0.7996   67.6514 H       1  ZINC001109082135    0.1000
     35 H35        -4.9950    0.9701   67.8248 H       1  ZINC001109082135    0.1000
     36 H36        -6.2788    1.3749   65.8403 H       1  ZINC001109082135    0.4100
     37 H37        -5.5705    2.0772   63.3539 H       1  ZINC001109082135    0.1000
     38 H38        -4.8774    0.4402   63.4448 H       1  ZINC001109082135    0.1000
     39 H39        -6.4476   -0.3803   61.8081 H       1  ZINC001109082135    0.4000
     40 H40       -10.3699    0.3255   62.2989 H       1  ZINC001109082135    0.0800
     41 H41        -8.9961    1.2763   61.6479 H       1  ZINC001109082135    0.0800
     42 H42        -8.8265    0.0506   58.2918 H       1  ZINC001109082135    0.0700
     43 H43        -8.2088    1.1464   59.5697 H       1  ZINC001109082135    0.0700
     44 H44        -7.3338   -1.5840   58.9722 H       1  ZINC001109082135    0.0700
     45 H45        -6.7162   -0.4883   60.2501 H       1  ZINC001109082135    0.0700
     46 H46       -10.4541   -3.0432   61.7641 H       1  ZINC001109082135    0.1000
     47 H47       -10.9789   -1.3711   62.0758 H       1  ZINC001109082135    0.0700
     48 H48       -13.3238   -1.6680   62.1815 H       1  ZINC001109082135    0.1600
     49 H49       -15.2290   -3.1057   58.7645 H       1  ZINC001109082135    0.4200
     50 H50       -12.2207   -3.6027   56.7957 H       1  ZINC001109082135    0.1300
     51 H51       -13.3699   -5.8356   56.4363 H       1  ZINC001109082135    0.1100
     52 H52       -14.3444   -5.5827   57.9815 H       1  ZINC001109082135    0.1100
     53 H53       -15.3471   -3.4681   57.0031 H       1  ZINC001109082135    0.1100
     54 H54       -14.3725   -3.7210   55.4579 H       1  ZINC001109082135    0.1100
@<TRIPOS>BOND
     1     1     2    1
     2     1    31    1
     3     1    32    1
     4     1    33    1
     5     2     3    1
     6     2    34    1
     7     2    35    1
     8     3     4    2
     9     3     5   am
    10     5     6    1
    11     5    36    1
    12     6     7    1
    13     6    37    1
    14     6    38    1
    15     7     8    2
    16     7     9   am
    17     9    10    1
    18     9    39    1
    19    10    11    1
    20    10    17    1
    21    10    12    1
    22    12    13    1
    23    12    40    1
    24    12    41    1
    25    13    14    1
    26    13    19    1
    27    13    15    1
    28    15    16    1
    29    15    42    1
    30    15    43    1
    31    16    17    1
    32    16    44    1
    33    16    45    1
    34    17    18    1
    35    17    19    1
    36    19    20    1
    37    20    21    1
    38    20    46    1
    39    20    47    1
    40    21    30    1
    41    21    22    2
    42    22    23    1
    43    22    48    1
    44    23    24    2
    45    23    25   am
    46    25    26    1
    47    25    49    1
    48    26    27    1
    49    26    30    2
    50    27    29    1
    51    27    28    1
    52    27    50    1
    53    28    29    1
    54    28    51    1
    55    28    52    1
    56    29    53    1
    57    29    54    1
@<TRIPOS>SUBSTRUCTURE
     1 ZINC001109082135        1 TEMP              0 ****  ****    0 ROOT


##########                                Name:    ZINC000532153088
##########                DOCK_Rotatable_Bonds:                  11
##########                         Heavy_Atoms:                  29
##########                    Molecular_Weight:             402.484
##########                DOCK_Rotatable_Bonds:                  11
##########                       Formal_Charge:          -0.0200009
##########                     HBond_Acceptors:                   6
##########                        HBond_Donors:                   1
##########                         Heavy_Atoms:                  29
##########                          Grid_Score:          -35.032719
##########                     Grid_vdw_energy:          -35.269844
##########                      Grid_es_energy:            0.237124
##########           Internal_energy_repulsive:           18.376335

@<TRIPOS>MOLECULE
ZINC000532153088
 57 59 1 0 0
SMALL
USER_CHARGES


@<TRIPOS>ATOM
      1 C1          2.2558    4.4674   53.9165 C.3     1  ZINC000532153088   -0.1800
      2 C2          1.7635    3.0384   53.6785 C.3     1  ZINC000532153088    0.0800
      3 C3          2.5028    2.0815   54.6159 C.3     1  ZINC000532153088   -0.1500
      4 O4          0.3598    2.9688   53.9370 O.3     1  ZINC000532153088   -0.3800
      5 C5         -0.4368    3.7337   53.0300 C.3     1  ZINC000532153088    0.1000
      6 C6         -1.8963    3.4779   53.3049 C.ar    1  ZINC000532153088   -0.0700
      7 C7         -2.2782    2.8335   54.4664 C.ar    1  ZINC000532153088   -0.1000
      8 C8         -3.6172    2.5988   54.7185 C.ar    1  ZINC000532153088   -0.1100
      9 C9         -4.5738    3.0092   53.8093 C.ar    1  ZINC000532153088   -0.1200
     10 C10        -4.1919    3.6547   52.6478 C.ar    1  ZINC000532153088   -0.1000
     11 C11        -2.8536    3.8930   52.3978 C.ar    1  ZINC000532153088   -0.1100
     12 C12        -2.4372    4.5966   51.1318 C.3     1  ZINC000532153088    0.1600
     13 N13        -2.7773    3.7636   49.9757 N.am    1  ZINC000532153088   -0.7300
     14 C14        -1.8047    3.1229   49.2974 C.2     1  ZINC000532153088    0.5100
     15 O15        -0.6480    3.2370   49.6433 O.2     1  ZINC000532153088   -0.5000
     16 C16        -2.1548    2.2646   48.1092 C.3     1  ZINC000532153088    0.0300
     17 N17        -1.1596    2.4680   47.0480 N.3     1  ZINC000532153088   -0.4800
     18 C18        -0.9704    1.2418   46.2615 C.3     1  ZINC000532153088    0.1000
     19 C19        -0.1515    0.2571   47.0556 C.ar    1  ZINC000532153088   -0.1300
     20 C20        -0.7556   -0.8557   47.6092 C.ar    1  ZINC000532153088   -0.0600
     21 C21        -0.0057   -1.7602   48.3374 C.ar    1  ZINC000532153088   -0.1700
     22 C22         1.3518   -1.5520   48.5130 C.ar    1  ZINC000532153088    0.1300
     23 F23         2.0846   -2.4364   49.2244 F       1  ZINC000532153088   -0.1300
     24 C24         1.9580   -0.4376   47.9589 C.ar    1  ZINC000532153088   -0.2000
     25 C25         1.2072    0.4645   47.2255 C.ar    1  ZINC000532153088    0.1600
     26 F26         1.7975    1.5524   46.6841 F       1  ZINC000532153088   -0.1100
     27 C27        -1.5345    3.5952   46.1837 C.3     1  ZINC000532153088    0.0200
     28 C28        -1.0280    4.9847   46.5755 C.3     1  ZINC000532153088   -0.2200
     29 C29        -0.4233    4.2618   45.3703 C.3     1  ZINC000532153088   -0.1700
     30 H30         3.3264    4.5204   53.7194 H       1  ZINC000532153088    0.0700
     31 H31         1.7291    5.1490   53.2487 H       1  ZINC000532153088    0.0600
     32 H32         2.0624    4.7506   54.9512 H       1  ZINC000532153088    0.0700
     33 H33         1.9569    2.7551   52.6438 H       1  ZINC000532153088    0.0600
     34 H34         2.3094    2.3647   55.6506 H       1  ZINC000532153088    0.0600
     35 H35         2.1521    1.0635   54.4462 H       1  ZINC000532153088    0.0600
     36 H36         3.5735    2.1346   54.4187 H       1  ZINC000532153088    0.0700
     37 H37        -0.2223    4.7940   53.1633 H       1  ZINC000532153088    0.0600
     38 H38        -0.2033    3.4416   52.0061 H       1  ZINC000532153088    0.0600
     39 H39        -1.5306    2.5129   55.1768 H       1  ZINC000532153088    0.1300
     40 H40        -3.9156    2.0946   55.6258 H       1  ZINC000532153088    0.1200
     41 H41        -5.6198    2.8254   54.0059 H       1  ZINC000532153088    0.1300
     42 H42        -4.9394    3.9751   51.9372 H       1  ZINC000532153088    0.1300
     43 H43        -2.9589    5.5509   51.0581 H       1  ZINC000532153088    0.0800
     44 H44        -1.3615    4.7711   51.1500 H       1  ZINC000532153088    0.0800
     45 H45        -3.7024    3.6733   49.6983 H       1  ZINC000532153088    0.4000
     46 H46        -2.1591    1.2160   48.4070 H       1  ZINC000532153088    0.0700
     47 H47        -3.1420    2.5413   47.7393 H       1  ZINC000532153088    0.1100
     48 H48        -1.9418    0.8043   46.0313 H       1  ZINC000532153088    0.0900
     49 H49        -0.4509    1.4817   45.3338 H       1  ZINC000532153088    0.0500
     50 H50        -1.8145   -1.0187   47.4731 H       1  ZINC000532153088    0.1400
     51 H51        -0.4788   -2.6293   48.7700 H       1  ZINC000532153088    0.1400
     52 H52         3.0170   -0.2744   48.0953 H       1  ZINC000532153088    0.1500
     53 H53        -2.5221    3.5293   45.7272 H       1  ZINC000532153088    0.1200
     54 H54        -1.6825    5.8335   46.3768 H       1  ZINC000532153088    0.1000
     55 H55        -0.4165    5.0626   47.4745 H       1  ZINC000532153088    0.1000
     56 H56         0.5860    3.8640   45.4764 H       1  ZINC000532153088    0.1000
     57 H57        -0.6799    4.6349   44.3787 H       1  ZINC000532153088    0.1000
@<TRIPOS>BOND
     1     1     2    1
     2     1    30    1
     3     1    31    1
     4     1    32    1
     5     2     3    1
     6     2     4    1
     7     2    33    1
     8     3    34    1
     9     3    35    1
    10     3    36    1
    11     4     5    1
    12     5     6    1
    13     5    37    1
    14     5    38    1
    15     6    11   ar
    16     6     7   ar
    17     7     8   ar
    18     7    39    1
    19     8     9   ar
    20     8    40    1
    21     9    10   ar
    22     9    41    1
    23    10    11   ar
    24    10    42    1
    25    11    12    1
    26    12    13    1
    27    12    43    1
    28    12    44    1
    29    13    14   am
    30    13    45    1
    31    14    15    2
    32    14    16    1
    33    16    17    1
    34    16    46    1
    35    16    47    1
    36    17    18    1
    37    17    27    1
    38    18    19    1
    39    18    48    1
    40    18    49    1
    41    19    25   ar
    42    19    20   ar
    43    20    21   ar
    44    20    50    1
    45    21    22   ar
    46    21    51    1
    47    22    23    1
    48    22    24   ar
    49    24    25   ar
    50    24    52    1
    51    25    26    1
    52    27    29    1
    53    27    28    1
    54    27    53    1
    55    28    29    1
    56    28    54    1
    57    28    55    1
    58    29    56    1
    59    29    57    1
@<TRIPOS>SUBSTRUCTURE
     1 ZINC000532153088        1 TEMP              0 ****  ****    0 ROOT


##########                                Name:    ZINC000484900616
##########                DOCK_Rotatable_Bonds:                  10
##########                         Heavy_Atoms:                  29
##########                    Molecular_Weight:             415.556
##########                DOCK_Rotatable_Bonds:                  10
##########                       Formal_Charge:        -1.49012e-08
##########                     HBond_Acceptors:                   7
##########                        HBond_Donors:                   1
##########                         Heavy_Atoms:                  29
##########                          Grid_Score:          -35.003448
##########                     Grid_vdw_energy:          -33.650978
##########                      Grid_es_energy:           -1.352469
##########           Internal_energy_repulsive:           11.516585

@<TRIPOS>MOLECULE
ZINC000484900616
 58 60 1 0 0
SMALL
USER_CHARGES


@<TRIPOS>ATOM
      1 C1          3.1904    0.3189   55.6102 C.3     1  ZINC000484900616   -0.1500
      2 C2          3.0590    1.6495   54.8664 C.3     1  ZINC000484900616    0.0600
      3 O3          1.7102    2.1626   55.0272 O.3     1  ZINC000484900616   -0.3400
      4 C4          1.4936    3.4408   54.6579 C.2     1  ZINC000484900616    0.5500
      5 O5          2.4303    4.1509   54.3481 O.2     1  ZINC000484900616   -0.5000
      6 C6          0.1237    3.9763   54.6296 C.2     1  ZINC000484900616    0.0200
      7 C7         -0.1537    5.2909   54.4713 C.2     1  ZINC000484900616   -0.2400
      8 S8         -1.8498    5.5030   54.4923 S.3     1  ZINC000484900616    0.2900
      9 C9         -2.0908    3.8266   54.7109 C.2     1  ZINC000484900616    0.0300
     10 C10        -3.4381    3.1621   54.8327 C.3     1  ZINC000484900616    0.1500
     11 H11        -3.3692    2.1117   54.5499 H       1  ZINC000484900616    0.0900
     12 C12        -3.9770    3.2970   56.2787 C.3     1  ZINC000484900616   -0.1200
     13 C13        -5.5064    3.1607   56.0570 C.3     1  ZINC000484900616   -0.1400
     14 C14        -5.7258    3.8672   54.7027 C.3     1  ZINC000484900616    0.0500
     15 N15        -4.4334    3.8580   53.9897 N.3     1  ZINC000484900616   -0.5100
     16 C16        -4.5610    3.2117   52.6767 C.3     1  ZINC000484900616    0.0300
     17 C17        -3.6818    3.9216   51.6797 C.2     1  ZINC000484900616    0.5200
     18 O18        -3.6883    5.1330   51.6199 O.2     1  ZINC000484900616   -0.5100
     19 N19        -2.8884    3.2105   50.8544 N.am    1  ZINC000484900616   -0.7300
     20 C20        -2.0325    3.9007   49.8863 C.3     1  ZINC000484900616    0.1900
     21 H21        -2.4827    4.8570   49.6200 H       1  ZINC000484900616    0.1000
     22 C22        -0.6538    4.1408   50.5049 C.3     1  ZINC000484900616   -0.1600
     23 C23        -1.8872    3.0522   48.6495 C.ar    1  ZINC000484900616   -0.1000
     24 C24        -1.9981    1.6771   48.7377 C.ar    1  ZINC000484900616   -0.1100
     25 C25        -1.8649    0.8987   47.6031 C.ar    1  ZINC000484900616   -0.1100
     26 C26        -1.6211    1.4954   46.3802 C.ar    1  ZINC000484900616   -0.0800
     27 C27        -1.4754    0.6468   45.1434 C.3     1  ZINC000484900616   -0.0900
     28 C28        -0.0347    0.7296   44.6349 C.3     1  ZINC000484900616   -0.1500
     29 C29        -1.5116    2.8706   46.2918 C.ar    1  ZINC000484900616   -0.1100
     30 C30        -1.6486    3.6492   47.4258 C.ar    1  ZINC000484900616   -0.1000
     31 N31        -0.9633    3.2092   54.7521 N.2     1  ZINC000484900616   -0.4300
     32 H32         2.9841    0.4728   56.6694 H       1  ZINC000484900616    0.0700
     33 H33         2.4779   -0.3977   55.2016 H       1  ZINC000484900616    0.0700
     34 H34         4.2030   -0.0663   55.4895 H       1  ZINC000484900616    0.0800
     35 H35         3.7714    2.3660   55.2750 H       1  ZINC000484900616    0.0700
     36 H36         3.2654    1.4956   53.8072 H       1  ZINC000484900616    0.0700
     37 H37         0.5766    6.0774   54.3513 H       1  ZINC000484900616    0.1900
     38 H38        -3.6012    2.4935   56.9122 H       1  ZINC000484900616    0.0900
     39 H39        -3.7288    4.2717   56.6986 H       1  ZINC000484900616    0.0800
     40 H40        -5.7949    2.1113   55.9953 H       1  ZINC000484900616    0.0700
     41 H41        -6.0575    3.6670   56.8495 H       1  ZINC000484900616    0.0800
     42 H42        -6.4728    3.3284   54.1199 H       1  ZINC000484900616    0.0600
     43 H43        -6.0517    4.8941   54.8687 H       1  ZINC000484900616    0.0900
     44 H44        -4.2542    2.1686   52.7538 H       1  ZINC000484900616    0.1100
     45 H45        -5.5987    3.2617   52.3465 H       1  ZINC000484900616    0.0700
     46 H46        -2.8842    2.2416   50.9012 H       1  ZINC000484900616    0.4000
     47 H47        -0.0169    4.6544   49.7847 H       1  ZINC000484900616    0.0700
     48 H48        -0.7589    4.7546   51.3995 H       1  ZINC000484900616    0.0700
     49 H49        -0.2035    3.1846   50.7711 H       1  ZINC000484900616    0.0600
     50 H50        -2.1886    1.2109   49.6931 H       1  ZINC000484900616    0.1200
     51 H51        -1.9508   -0.1757   47.6721 H       1  ZINC000484900616    0.1200
     52 H52        -1.7174   -0.3887   45.3827 H       1  ZINC000484900616    0.0700
     53 H53        -2.1545    1.0097   44.3718 H       1  ZINC000484900616    0.0700
     54 H54         0.2071    1.7652   44.3956 H       1  ZINC000484900616    0.0600
     55 H55         0.6443    0.3668   45.4064 H       1  ZINC000484900616    0.0600
     56 H56         0.0706    0.1159   43.7403 H       1  ZINC000484900616    0.0600
     57 H57        -1.3215    3.3368   45.3363 H       1  ZINC000484900616    0.1200
     58 H58        -1.5631    4.7237   47.3566 H       1  ZINC000484900616    0.1200
@<TRIPOS>BOND
     1     1     2    1
     2     1    32    1
     3     1    33    1
     4     1    34    1
     5     2     3    1
     6     2    35    1
     7     2    36    1
     8     3     4    1
     9     4     5    2
    10     4     6    1
    11     6    31    1
    12     6     7    2
    13     7     8    1
    14     7    37    1
    15     8     9    1
    16     9    10    1
    17     9    31    2
    18    10    11    1
    19    10    15    1
    20    10    12    1
    21    12    13    1
    22    12    38    1
    23    12    39    1
    24    13    14    1
    25    13    40    1
    26    13    41    1
    27    14    15    1
    28    14    42    1
    29    14    43    1
    30    15    16    1
    31    16    17    1
    32    16    44    1
    33    16    45    1
    34    17    18    2
    35    17    19   am
    36    19    20    1
    37    19    46    1
    38    20    21    1
    39    20    22    1
    40    20    23    1
    41    22    47    1
    42    22    48    1
    43    22    49    1
    44    23    30   ar
    45    23    24   ar
    46    24    25   ar
    47    24    50    1
    48    25    26   ar
    49    25    51    1
    50    26    27    1
    51    26    29   ar
    52    27    28    1
    53    27    52    1
    54    27    53    1
    55    28    54    1
    56    28    55    1
    57    28    56    1
    58    29    30   ar
    59    29    57    1
    60    30    58    1
@<TRIPOS>SUBSTRUCTURE
     1 ZINC000484900616        1 TEMP              0 ****  ****    0 ROOT


##########                                Name:    ZINC000824084043
##########                DOCK_Rotatable_Bonds:                  11
##########                         Heavy_Atoms:                  27
##########                    Molecular_Weight:             382.547
##########                DOCK_Rotatable_Bonds:                  11
##########                       Formal_Charge:        -6.85453e-07
##########                     HBond_Acceptors:                   7
##########                        HBond_Donors:                   3
##########                         Heavy_Atoms:                  27
##########                          Grid_Score:          -34.918987
##########                     Grid_vdw_energy:          -33.237457
##########                      Grid_es_energy:           -1.681531
##########           Internal_energy_repulsive:           18.298647

@<TRIPOS>MOLECULE
ZINC000824084043
 65 66 1 0 0
SMALL
USER_CHARGES


@<TRIPOS>ATOM
      1 C1         -1.1705    2.9204   45.9065 C.3     1  ZINC000824084043   -0.1400
      2 C2         -1.3558    1.4659   46.3436 C.3     1  ZINC000824084043   -0.1000
      3 C3         -0.4127    0.5680   45.5404 C.3     1  ZINC000824084043   -0.1300
      4 C4         -1.0366    1.3368   47.8344 C.3     1  ZINC000824084043    0.1700
      5 H5         -0.0187    1.6798   48.0190 H       1  ZINC000824084043    0.0700
      6 C6         -2.0168    2.1902   48.6416 C.3     1  ZINC000824084043   -0.1400
      7 C7         -1.3128    3.4623   49.1181 C.3     1  ZINC000824084043    0.1300
      8 N8         -1.3127    3.5010   50.5827 N.am    1  ZINC000824084043   -0.6200
      9 C9         -0.1059    3.1286   51.3252 C.3     1  ZINC000824084043    0.0800
     10 C10        -2.4226    3.8793   51.2468 C.2     1  ZINC000824084043    0.7000
     11 O11        -3.4238    4.1899   50.6307 O.2     1  ZINC000824084043   -0.5800
     12 N12        -2.4231    3.9134   52.5942 N.am    1  ZINC000824084043   -0.7500
     13 C13        -3.6290    4.3263   53.3162 C.3     1  ZINC000824084043    0.1600
     14 C14        -4.4387    3.0878   53.7110 C.3     1  ZINC000824084043   -0.1600
     15 C15        -5.6547    3.5209   54.5328 C.3     1  ZINC000824084043   -0.0100
     16 N16        -5.2077    4.2213   55.7429 N.4     1  ZINC000824084043   -0.3800
     17 H17        -4.5923    3.6202   56.2702 H       1  ZINC000824084043    0.4200
     18 C18        -6.3745    4.5677   56.5655 C.3     1  ZINC000824084043    0.0000
     19 C19        -5.9924    4.5023   58.0456 C.3     1  ZINC000824084043   -0.1200
     20 C20        -6.5640    5.7238   58.8074 C.3     1  ZINC000824084043   -0.1400
     21 C21        -6.6310    5.2144   60.2686 C.3     1  ZINC000824084043   -0.1200
     22 C22        -7.0667    3.7405   60.1359 C.3     1  ZINC000824084043   -0.1300
     23 C23        -6.6606    3.2877   58.7225 C.3     1  ZINC000824084043   -0.1100
     24 C24        -4.4921    5.4482   55.3726 C.3     1  ZINC000824084043    0.0000
     25 C25        -3.2314    5.0893   54.5831 C.3     1  ZINC000824084043   -0.1600
     26 N26        -1.1605   -0.0654   48.2406 N.am    1  ZINC000824084043   -0.7800
     27 C27        -0.0550   -0.7960   48.4864 C.2     1  ZINC000824084043    0.6600
     28 O28        -0.1585   -1.9661   48.8270 O.co2   1  ZINC000824084043   -0.7200
     29 O29         1.0518   -0.2888   48.3689 O.co2   1  ZINC000824084043   -0.7300
     30 H30        -1.3979    3.0124   44.8445 H       1  ZINC000824084043    0.0500
     31 H31        -1.8424    3.5602   46.4788 H       1  ZINC000824084043    0.0500
     32 H32        -0.1393    3.2248   46.0850 H       1  ZINC000824084043    0.0500
     33 H33        -2.3871    1.1615   46.1652 H       1  ZINC000824084043    0.0500
     34 H34         0.6185    0.8724   45.7189 H       1  ZINC000824084043    0.0600
     35 H35        -0.5448   -0.4683   45.8518 H       1  ZINC000824084043    0.0700
     36 H36        -0.6401    0.6600   44.4784 H       1  ZINC000824084043    0.0300
     37 H37        -2.8669    2.4586   48.0144 H       1  ZINC000824084043    0.0700
     38 H38        -2.3665    1.6236   49.5046 H       1  ZINC000824084043    0.0600
     39 H39        -0.2853    3.4669   48.7545 H       1  ZINC000824084043    0.0900
     40 H40        -1.8390    4.3352   48.7317 H       1  ZINC000824084043    0.0900
     41 H41         0.5109    4.0132   51.4834 H       1  ZINC000824084043    0.0600
     42 H42        -0.3885    2.7054   52.2891 H       1  ZINC000824084043    0.0600
     43 H43         0.4577    2.3898   50.7553 H       1  ZINC000824084043    0.0800
     44 H44        -1.6247    3.6644   53.0859 H       1  ZINC000824084043    0.4000
     45 H45        -4.2336    4.9701   52.6775 H       1  ZINC000824084043    0.1100
     46 H46        -4.7728    2.5697   52.8121 H       1  ZINC000824084043    0.1200
     47 H47        -3.8159    2.4204   54.3065 H       1  ZINC000824084043    0.0900
     48 H48        -6.2769    4.1880   53.9363 H       1  ZINC000824084043    0.1300
     49 H49        -6.2336    2.6415   54.8154 H       1  ZINC000824084043    0.1300
     50 H50        -6.7055    5.5768   56.3199 H       1  ZINC000824084043    0.1300
     51 H51        -7.1814    3.8623   56.3670 H       1  ZINC000824084043    0.1300
     52 H52        -4.9092    4.4533   58.1573 H       1  ZINC000824084043    0.1000
     53 H53        -5.8923    6.5783   58.7266 H       1  ZINC000824084043    0.0700
     54 H54        -7.5588    5.9769   58.4406 H       1  ZINC000824084043    0.0800
     55 H55        -5.6512    5.2816   60.7414 H       1  ZINC000824084043    0.0700
     56 H56        -7.3693    5.7807   60.8365 H       1  ZINC000824084043    0.0800
     57 H57        -6.5578    3.1320   60.8835 H       1  ZINC000824084043    0.0700
     58 H58        -8.1465    3.6578   60.2587 H       1  ZINC000824084043    0.0700
     59 H59        -7.5434    2.9853   58.1592 H       1  ZINC000824084043    0.0700
     60 H60        -5.9546    2.4595   58.7841 H       1  ZINC000824084043    0.0800
     61 H61        -5.1391    6.0743   54.7582 H       1  ZINC000824084043    0.1300
     62 H62        -4.2127    5.9917   56.2751 H       1  ZINC000824084043    0.1300
     63 H63        -2.5835    4.4634   55.1967 H       1  ZINC000824084043    0.0900
     64 H64        -2.7025    6.0017   54.3076 H       1  ZINC000824084043    0.1200
     65 H65        -2.0383   -0.4678   48.3325 H       1  ZINC000824084043    0.3600
@<TRIPOS>BOND
     1     1     2    1
     2     1    30    1
     3     1    31    1
     4     1    32    1
     5     2     3    1
     6     2     4    1
     7     2    33    1
     8     3    34    1
     9     3    35    1
    10     3    36    1
    11     4     5    1
    12     4     6    1
    13     4    26    1
    14     6     7    1
    15     6    37    1
    16     6    38    1
    17     7     8    1
    18     7    39    1
    19     7    40    1
    20     8     9    1
    21     8    10   am
    22     9    41    1
    23     9    42    1
    24     9    43    1
    25    10    11    2
    26    10    12   am
    27    12    13    1
    28    12    44    1
    29    13    25    1
    30    13    14    1
    31    13    45    1
    32    14    15    1
    33    14    46    1
    34    14    47    1
    35    15    16    1
    36    15    48    1
    37    15    49    1
    38    16    17    1
    39    16    18    1
    40    16    24    1
    41    18    19    1
    42    18    50    1
    43    18    51    1
    44    19    23    1
    45    19    20    1
    46    19    52    1
    47    20    21    1
    48    20    53    1
    49    20    54    1
    50    21    22    1
    51    21    55    1
    52    21    56    1
    53    22    23    1
    54    22    57    1
    55    22    58    1
    56    23    59    1
    57    23    60    1
    58    24    25    1
    59    24    61    1
    60    24    62    1
    61    25    63    1
    62    25    64    1
    63    26    27   am
    64    26    65    1
    65    27    28   ar
    66    27    29   ar
@<TRIPOS>SUBSTRUCTURE
     1 ZINC000824084043        1 TEMP              0 ****  ****    0 ROOT


##########                                Name:    ZINC000474368324
##########                DOCK_Rotatable_Bonds:                   9
##########                         Heavy_Atoms:                  27
##########                    Molecular_Weight:             417.332
##########                DOCK_Rotatable_Bonds:                   9
##########                       Formal_Charge:        -1.63913e-07
##########                     HBond_Acceptors:                   8
##########                        HBond_Donors:                   1
##########                         Heavy_Atoms:                  27
##########                          Grid_Score:          -34.896019
##########                     Grid_vdw_energy:          -35.232346
##########                      Grid_es_energy:            0.336327
##########           Internal_energy_repulsive:           25.410095

@<TRIPOS>MOLECULE
ZINC000474368324
 53 54 1 0 0
SMALL
USER_CHARGES


@<TRIPOS>ATOM
      1 C1          4.4518    1.3757   47.2744 C.3     1  ZINC000474368324   -0.1500
      2 C2          3.0861    0.7328   47.0242 C.3     1  ZINC000474368324    0.0600
      3 O3          2.4230    0.4953   48.2940 O.3     1  ZINC000474368324   -0.3300
      4 C4          1.1959   -0.0469   48.2486 C.2     1  ZINC000474368324    0.4700
      5 O5          1.0655   -1.2480   48.2588 O.2     1  ZINC000474368324   -0.5100
      6 C6         -0.0190    0.8425   48.1850 C.3     1  ZINC000474368324   -0.0400
      7 C7         -0.2763    1.2509   46.7332 C.3     1  ZINC000474368324    0.0600
      8 O8         -0.6103    0.0934   45.9647 O.3     1  ZINC000474368324   -0.3700
      9 C9         -0.8186    0.3579   44.5760 C.3     1  ZINC000474368324    0.0300
     10 C10        -1.2344    0.0846   48.7242 C.3     1  ZINC000474368324   -0.1200
     11 C11        -2.4739    0.9795   48.6260 C.3     1  ZINC000474368324    0.1100
     12 N12        -2.1981    2.2469   49.3162 N.am    1  ZINC000474368324   -0.6300
     13 C13        -3.0259    2.6988   50.2789 C.2     1  ZINC000474368324    0.7100
     14 O14        -4.0121    2.0562   50.5838 O.2     1  ZINC000474368324   -0.5800
     15 N15        -2.7607    3.8632   50.9038 N.am    1  ZINC000474368324   -0.7400
     16 C16        -3.6605    4.3545   51.9502 C.3     1  ZINC000474368324    0.2000
     17 H17        -4.6913    4.1258   51.6800 H       1  ZINC000474368324    0.1100
     18 C18        -3.4952    5.8686   52.0953 C.3     1  ZINC000474368324   -0.1600
     19 C19        -3.3236    3.6848   53.2576 C.ar    1  ZINC000474368324   -0.0700
     20 C20        -2.0114    3.3678   53.5536 C.ar    1  ZINC000474368324   -0.1000
     21 C21        -1.7014    2.7538   54.7531 C.ar    1  ZINC000474368324   -0.0900
     22 C22        -2.7033    2.4564   55.6573 C.ar    1  ZINC000474368324   -0.1000
     23 C23        -4.0174    2.7731   55.3626 C.ar    1  ZINC000474368324   -0.0300
     24 Cl24       -5.2764    2.3998   56.4981 Cl      1  ZINC000474368324   -0.0400
     25 C25        -4.3272    3.3927   54.1639 C.ar    1  ZINC000474368324   -0.0300
     26 Cl26       -5.9756    3.7912   53.7928 Cl      1  ZINC000474368324   -0.0400
     27 C27        -1.0023    3.0120   48.9373 C.3     1  ZINC000474368324    0.1300
     28 C28         0.2207    2.0944   49.0321 C.3     1  ZINC000474368324   -0.1200
     29 H29         4.9495    1.5538   46.3213 H       1  ZINC000474368324    0.0800
     30 H30         4.3173    2.3228   47.7968 H       1  ZINC000474368324    0.0700
     31 H31         5.0614    0.7082   47.8835 H       1  ZINC000474368324    0.0700
     32 H32         2.4765    1.4002   46.4152 H       1  ZINC000474368324    0.0700
     33 H33         3.2206   -0.2144   46.5019 H       1  ZINC000474368324    0.0700
     34 H34        -1.1017    1.9619   46.6966 H       1  ZINC000474368324    0.0700
     35 H35         0.6206    1.7139   46.3216 H       1  ZINC000474368324    0.0600
     36 H36        -1.6374    1.0680   44.4602 H       1  ZINC000474368324    0.0400
     37 H37         0.0904    0.7782   44.1458 H       1  ZINC000474368324    0.0400
     38 H38        -1.0677   -0.5707   44.0625 H       1  ZINC000474368324    0.0900
     39 H39        -1.3904   -0.8190   48.1350 H       1  ZINC000474368324    0.1000
     40 H40        -1.0621   -0.1850   49.7661 H       1  ZINC000474368324    0.0800
     41 H41        -2.7007    1.1760   47.5780 H       1  ZINC000474368324    0.0800
     42 H42        -3.3214    0.4830   49.0985 H       1  ZINC000474368324    0.0800
     43 H43        -1.9739    4.3758   50.6606 H       1  ZINC000474368324    0.3900
     44 H44        -2.4643    6.0973   52.3657 H       1  ZINC000474368324    0.0600
     45 H45        -3.7388    6.3530   51.1498 H       1  ZINC000474368324    0.0700
     46 H46        -4.1646    6.2342   52.8740 H       1  ZINC000474368324    0.0700
     47 H47        -1.2277    3.5995   52.8475 H       1  ZINC000474368324    0.1300
     48 H48        -0.6756    2.5062   54.9833 H       1  ZINC000474368324    0.1400
     49 H49        -2.4605    1.9765   56.5939 H       1  ZINC000474368324    0.1500
     50 H50        -1.1091    3.3742   47.9148 H       1  ZINC000474368324    0.0700
     51 H51        -0.8789    3.8565   49.6153 H       1  ZINC000474368324    0.1100
     52 H52         0.3793    1.8057   50.0711 H       1  ZINC000474368324    0.0900
     53 H53         1.1003    2.6211   48.6620 H       1  ZINC000474368324    0.0900
@<TRIPOS>BOND
     1     1     2    1
     2     1    29    1
     3     1    30    1
     4     1    31    1
     5     2     3    1
     6     2    32    1
     7     2    33    1
     8     3     4    1
     9     4     5    2
    10     4     6    1
    11     6    28    1
    12     6     7    1
    13     6    10    1
    14     7     8    1
    15     7    34    1
    16     7    35    1
    17     8     9    1
    18     9    36    1
    19     9    37    1
    20     9    38    1
    21    10    11    1
    22    10    39    1
    23    10    40    1
    24    11    12    1
    25    11    41    1
    26    11    42    1
    27    12    13   am
    28    12    27    1
    29    13    14    2
    30    13    15   am
    31    15    16    1
    32    15    43    1
    33    16    17    1
    34    16    18    1
    35    16    19    1
    36    18    44    1
    37    18    45    1
    38    18    46    1
    39    19    25   ar
    40    19    20   ar
    41    20    21   ar
    42    20    47    1
    43    21    22   ar
    44    21    48    1
    45    22    23   ar
    46    22    49    1
    47    23    24    1
    48    23    25   ar
    49    25    26    1
    50    27    28    1
    51    27    50    1
    52    27    51    1
    53    28    52    1
    54    28    53    1
@<TRIPOS>SUBSTRUCTURE
     1 ZINC000474368324        1 TEMP              0 ****  ****    0 ROOT


##########                                Name:    ZINC001328997126
##########                DOCK_Rotatable_Bonds:                   7
##########                         Heavy_Atoms:                  26
##########                    Molecular_Weight:             388.488
##########                DOCK_Rotatable_Bonds:                   7
##########                       Formal_Charge:           0.0299993
##########                     HBond_Acceptors:                  10
##########                        HBond_Donors:                   1
##########                         Heavy_Atoms:                  26
##########                          Grid_Score:          -34.894695
##########                     Grid_vdw_energy:          -34.194447
##########                      Grid_es_energy:           -0.700248
##########           Internal_energy_repulsive:           12.120616

@<TRIPOS>MOLECULE
ZINC001328997126
 54 56 1 0 0
SMALL
USER_CHARGES


@<TRIPOS>ATOM
      1 C1         -7.2952    2.4794   59.3670 C.3     1  ZINC001328997126   -0.1700
      2 C2         -7.2682    1.4631   58.2235 C.3     1  ZINC001328997126    0.1400
      3 N3         -6.5935    2.0508   57.0636 N.am    1  ZINC001328997126   -0.6300
      4 C4         -5.1436    2.0313   56.8168 C.3     1  ZINC001328997126    0.0700
      5 C5         -4.9892    2.7783   55.4779 C.3     1  ZINC001328997126    0.0700
      6 H6         -4.5522    2.1240   54.7235 H       1  ZINC001328997126    0.1200
      7 C7         -4.1322    4.0328   55.6593 C.3     1  ZINC001328997126    0.0500
      8 N8         -3.5032    4.3853   54.3795 N.3     1  ZINC001328997126   -0.5300
      9 C9         -4.5068    4.4945   53.3117 C.3     1  ZINC001328997126    0.0500
     10 C10        -3.8235    4.9397   52.0166 C.3     1  ZINC001328997126    0.0600
     11 N11        -2.7802    3.9690   51.6576 N.3     1  ZINC001328997126   -0.5200
     12 C12        -2.1510    4.3216   50.3778 C.3     1  ZINC001328997126    0.0400
     13 C13        -2.2984    3.1738   49.4124 C.2     1  ZINC001328997126    0.5200
     14 O14        -2.8630    2.1581   49.7597 O.2     1  ZINC001328997126   -0.5100
     15 N15        -1.8028    3.2760   48.1633 N.am    1  ZINC001328997126   -0.7300
     16 C16        -1.9446    2.1595   47.2254 C.3     1  ZINC001328997126    0.1600
     17 H17        -2.9312    1.7097   47.3377 H       1  ZINC001328997126    0.1100
     18 C18        -1.7693    2.6689   45.7842 C.3     1  ZINC001328997126   -0.1400
     19 C19        -1.5987    1.4151   44.8881 C.3     1  ZINC001328997126   -0.5800
     20 S20        -0.4733    0.3645   45.8825 S.o2    1  ZINC001328997126    2.4000
     21 O21        -0.9342   -0.9794   45.8523 O.2     1  ZINC001328997126   -0.9300
     22 O22         0.8734    0.6587   45.5373 O.2     1  ZINC001328997126   -0.9300
     23 C23        -0.8581    1.1031   47.5091 C.3     1  ZINC001328997126   -0.6100
     24 C24        -1.7765    3.8598   52.7254 C.3     1  ZINC001328997126    0.0500
     25 C25        -2.4598    3.4147   54.0205 C.3     1  ZINC001328997126    0.0600
     26 O26        -6.3539    3.1367   55.1146 O.3     1  ZINC001328997126   -0.3100
     27 C27        -7.1971    2.6890   56.0517 C.2     1  ZINC001328997126    0.6400
     28 O28        -8.3996    2.8533   55.9946 O.2     1  ZINC001328997126   -0.5200
     29 H29        -6.2743    2.7483   59.6382 H       1  ZINC001328997126    0.0600
     30 H30        -7.8333    3.3717   59.0473 H       1  ZINC001328997126    0.0600
     31 H31        -7.7972    2.0421   60.2300 H       1  ZINC001328997126    0.0700
     32 H32        -6.7301    0.5707   58.5433 H       1  ZINC001328997126    0.0900
     33 H33        -8.2891    1.1941   57.9524 H       1  ZINC001328997126    0.0900
     34 H34        -4.6128    2.5558   57.6112 H       1  ZINC001328997126    0.0900
     35 H35        -4.7843    1.0061   56.7269 H       1  ZINC001328997126    0.0900
     36 H36        -4.7615    4.8573   55.9943 H       1  ZINC001328997126    0.0900
     37 H37        -3.3592    3.8402   56.4032 H       1  ZINC001328997126    0.0600
     38 H38        -4.9812    3.5253   53.1580 H       1  ZINC001328997126    0.0500
     39 H39        -5.2614    5.2281   53.5955 H       1  ZINC001328997126    0.0900
     40 H40        -4.5613    4.9934   51.2161 H       1  ZINC001328997126    0.0800
     41 H41        -3.3724    5.9212   52.1622 H       1  ZINC001328997126    0.0500
     42 H42        -2.6358    5.2069   49.9663 H       1  ZINC001328997126    0.1100
     43 H43        -1.0927    4.5281   50.5379 H       1  ZINC001328997126    0.0700
     44 H44        -1.3523    4.0887   47.8852 H       1  ZINC001328997126    0.4100
     45 H45        -2.6516    3.2302   45.4767 H       1  ZINC001328997126    0.1100
     46 H46        -0.8828    3.2996   45.7164 H       1  ZINC001328997126    0.0900
     47 H47        -2.5560    0.9175   44.7327 H       1  ZINC001328997126    0.1400
     48 H48        -1.1399    1.6799   43.9355 H       1  ZINC001328997126    0.1400
     49 H49         0.0297    1.5749   47.9302 H       1  ZINC001328997126    0.1400
     50 H50        -1.2421    0.3425   48.1889 H       1  ZINC001328997126    0.1500
     51 H51        -1.0219    3.1262   52.4416 H       1  ZINC001328997126    0.1000
     52 H52        -1.3022    4.8291   52.8790 H       1  ZINC001328997126    0.0400
     53 H53        -1.7220    3.3610   54.8211 H       1  ZINC001328997126    0.0800
     54 H54        -2.9110    2.4331   53.8749 H       1  ZINC001328997126    0.0500
@<TRIPOS>BOND
     1     1     2    1
     2     1    29    1
     3     1    30    1
     4     1    31    1
     5     2     3    1
     6     2    32    1
     7     2    33    1
     8     3    27   am
     9     3     4    1
    10     4     5    1
    11     4    34    1
    12     4    35    1
    13     5     6    1
    14     5     7    1
    15     5    26    1
    16     7     8    1
    17     7    36    1
    18     7    37    1
    19     8    25    1
    20     8     9    1
    21     9    10    1
    22     9    38    1
    23     9    39    1
    24    10    11    1
    25    10    40    1
    26    10    41    1
    27    11    12    1
    28    11    24    1
    29    12    13    1
    30    12    42    1
    31    12    43    1
    32    13    14    2
    33    13    15   am
    34    15    16    1
    35    15    44    1
    36    16    17    1
    37    16    23    1
    38    16    18    1
    39    18    19    1
    40    18    45    1
    41    18    46    1
    42    19    20    1
    43    19    47    1
    44    19    48    1
    45    20    21    2
    46    20    22    2
    47    20    23    1
    48    23    49    1
    49    23    50    1
    50    24    25    1
    51    24    51    1
    52    24    52    1
    53    25    53    1
    54    25    54    1
    55    26    27    1
    56    27    28    2
@<TRIPOS>SUBSTRUCTURE
     1 ZINC001328997126        1 TEMP              0 ****  ****    0 ROOT


##########                                Name:    ZINC000058043838
##########                DOCK_Rotatable_Bonds:                   8
##########                         Heavy_Atoms:                  29
##########                    Molecular_Weight:             412.469
##########                DOCK_Rotatable_Bonds:                   8
##########                       Formal_Charge:           0.0200001
##########                     HBond_Acceptors:                   9
##########                        HBond_Donors:                   0
##########                         Heavy_Atoms:                  29
##########                          Grid_Score:          -34.849636
##########                     Grid_vdw_energy:          -32.937428
##########                      Grid_es_energy:           -1.912209
##########           Internal_energy_repulsive:           13.141194

@<TRIPOS>MOLECULE
ZINC000058043838
 49 51 1 0 0
SMALL
USER_CHARGES


@<TRIPOS>ATOM
      1 C1         -6.1238    3.0705   55.7880 C.3     1  ZINC000058043838    0.0300
      2 O2         -4.8772    2.8418   55.1277 O.3     1  ZINC000058043838   -0.3800
      3 C3         -3.7764    2.6431   56.0170 C.3     1  ZINC000058043838    0.0300
      4 C4         -2.5000    2.4138   55.2051 C.3     1  ZINC000058043838    0.1000
      5 N5         -2.0547    3.6838   54.6262 N.am    1  ZINC000058043838   -0.5200
      6 C6         -1.1901    4.4661   55.3022 C.2     1  ZINC000058043838    0.5100
      7 O7         -0.8203    5.5167   54.8223 O.2     1  ZINC000058043838   -0.4500
      8 C8         -0.6828    4.0352   56.6543 C.3     1  ZINC000058043838   -0.0900
      9 C9          0.4289    3.0333   56.4778 C.ar    1  ZINC000058043838   -0.1400
     10 C10         0.6375    2.0423   57.4245 C.ar    1  ZINC000058043838   -0.0500
     11 C11         1.6722    1.1418   57.2204 C.ar    1  ZINC000058043838   -0.1700
     12 C12         2.4552    1.2612   56.0881 C.ar    1  ZINC000058043838    0.1300
     13 C13         3.5820    0.2878   55.8558 C.3     1  ZINC000058043838   -0.1100
     14 N14         2.2277    2.2169   55.2082 N.ar    1  ZINC000058043838   -0.4800
     15 C15         1.2499    3.0872   55.3670 C.ar    1  ZINC000058043838    0.1200
     16 C16        -2.5237    4.0818   53.3803 C.2     1  ZINC000058043838    0.3100
     17 N17        -2.1781    3.5562   52.2466 N.2     1  ZINC000058043838   -0.4700
     18 C18        -2.7297    4.0653   51.1539 C.2     1  ZINC000058043838    0.1100
     19 C19        -2.4190    3.5537   49.7969 C.ar    1  ZINC000058043838    0.0400
     20 C20        -1.8146    4.3865   48.8567 C.ar    1  ZINC000058043838   -0.0800
     21 C21        -1.5275    3.9049   47.5957 C.ar    1  ZINC000058043838   -0.0500
     22 C22        -1.8382    2.5984   47.2641 C.ar    1  ZINC000058043838   -0.0400
     23 N23        -1.5276    2.0876   45.9098 N.pl3   1  ZINC000058043838    0.0300
     24 O24        -0.9995    2.8172   45.0900 O.2     1  ZINC000058043838   -0.1600
     25 O25        -1.8002    0.9375   45.6154 O.2     1  ZINC000058043838   -0.1600
     26 C26        -2.4376    1.7672   48.1933 C.ar    1  ZINC000058043838   -0.0500
     27 C27        -2.7251    2.2366   49.4589 C.ar    1  ZINC000058043838   -0.1100
     28 C28        -3.5908    5.0777   51.3610 C.2     1  ZINC000058043838   -0.2600
     29 S29        -3.6860    5.3739   53.0955 S.3     1  ZINC000058043838    0.1500
     30 H30        -6.3666    2.2115   56.4135 H       1  ZINC000058043838    0.0500
     31 H31        -6.0474    3.9626   56.4097 H       1  ZINC000058043838    0.0400
     32 H32        -6.9082    3.2119   55.0445 H       1  ZINC000058043838    0.0900
     33 H33        -3.6536    3.5249   56.6458 H       1  ZINC000058043838    0.0600
     34 H34        -3.9689    1.7731   56.6447 H       1  ZINC000058043838    0.0800
     35 H35        -1.7209    2.0187   55.8569 H       1  ZINC000058043838    0.1200
     36 H36        -2.7012    1.7008   54.4056 H       1  ZINC000058043838    0.1000
     37 H37        -0.3065    4.9038   57.1948 H       1  ZINC000058043838    0.1100
     38 H38        -1.4960    3.5799   57.2193 H       1  ZINC000058043838    0.1100
     39 H39         0.0095    1.9735   58.3004 H       1  ZINC000058043838    0.1300
     40 H40         1.8637    0.3572   57.9375 H       1  ZINC000058043838    0.1400
     41 H41         3.2122   -0.5678   55.2907 H       1  ZINC000058043838    0.0800
     42 H42         4.3762    0.7788   55.2934 H       1  ZINC000058043838    0.0800
     43 H43         3.9725   -0.0516   56.8151 H       1  ZINC000058043838    0.0800
     44 H44         1.0941    3.8562   54.6249 H       1  ZINC000058043838    0.1500
     45 H45        -1.5719    5.4068   49.1144 H       1  ZINC000058043838    0.1600
     46 H46        -1.0595    4.5494   46.8663 H       1  ZINC000058043838    0.1600
     47 H47        -2.6781    0.7480   47.9290 H       1  ZINC000058043838    0.1600
     48 H48        -3.1927    1.5866   50.1837 H       1  ZINC000058043838    0.1500
     49 H49        -4.1332    5.6139   50.5963 H       1  ZINC000058043838    0.1800
@<TRIPOS>BOND
     1     1     2    1
     2     1    30    1
     3     1    31    1
     4     1    32    1
     5     2     3    1
     6     3     4    1
     7     3    33    1
     8     3    34    1
     9     4     5    1
    10     4    35    1
    11     4    36    1
    12     5     6   am
    13     5    16    1
    14     6     7    2
    15     6     8    1
    16     8     9    1
    17     8    37    1
    18     8    38    1
    19     9    15   ar
    20     9    10   ar
    21    10    11   ar
    22    10    39    1
    23    11    12   ar
    24    11    40    1
    25    12    13    1
    26    12    14   ar
    27    13    41    1
    28    13    42    1
    29    13    43    1
    30    14    15   ar
    31    15    44    1
    32    16    29    1
    33    16    17    2
    34    17    18    1
    35    18    19    1
    36    18    28    2
    37    19    27   ar
    38    19    20   ar
    39    20    21   ar
    40    20    45    1
    41    21    22   ar
    42    21    46    1
    43    22    23    1
    44    22    26   ar
    45    23    24    2
    46    23    25    2
    47    26    27   ar
    48    26    47    1
    49    27    48    1
    50    28    29    1
    51    28    49    1
@<TRIPOS>SUBSTRUCTURE
     1 ZINC000058043838        1 TEMP              0 ****  ****    0 ROOT


##########                                Name:    ZINC000482187991
##########                DOCK_Rotatable_Bonds:                  11
##########                         Heavy_Atoms:                  29
##########                    Molecular_Weight:             407.414
##########                DOCK_Rotatable_Bonds:                  11
##########                       Formal_Charge:           0.0299996
##########                     HBond_Acceptors:                   8
##########                        HBond_Donors:                   1
##########                         Heavy_Atoms:                  29
##########                          Grid_Score:          -34.770130
##########                     Grid_vdw_energy:          -32.804733
##########                      Grid_es_energy:           -1.965396
##########           Internal_energy_repulsive:           15.088942

@<TRIPOS>MOLECULE
ZINC000482187991
 52 53 1 0 0
SMALL
USER_CHARGES


@<TRIPOS>ATOM
      1 C1          0.6487    4.6971   44.6902 C.3     1  ZINC000482187991    0.0200
      2 O2         -0.6552    4.1134   44.7287 O.3     1  ZINC000482187991   -0.3000
      3 C3         -1.0862    3.6438   45.9301 C.ar    1  ZINC000482187991    0.1400
      4 C4         -1.3004    4.5195   46.9764 C.ar    1  ZINC000482187991   -0.1700
      5 C5         -1.7445    4.0352   48.2127 C.ar    1  ZINC000482187991   -0.1000
      6 C6         -1.9737    4.9632   49.3276 C.2     1  ZINC000482187991    0.4000
      7 O7         -2.4537    6.0571   49.1172 O.2     1  ZINC000482187991   -0.4500
      8 C8         -1.6128    4.5564   50.7330 C.3     1  ZINC000482187991   -0.1500
      9 C9         -2.8900    4.2690   51.5248 C.3     1  ZINC000482187991   -0.1300
     10 C10        -2.6101    4.4113   52.9987 C.2     1  ZINC000482187991    0.5200
     11 O11        -2.9034    5.4371   53.5754 O.2     1  ZINC000482187991   -0.5200
     12 N12        -2.0337    3.3987   53.6760 N.am    1  ZINC000482187991   -0.7200
     13 C13        -1.7601    3.5376   55.1085 C.3     1  ZINC000482187991    0.1500
     14 H14        -1.7484    4.5945   55.3753 H       1  ZINC000482187991    0.1300
     15 C15        -0.4204    2.9248   55.4257 C.ar    1  ZINC000482187991   -0.1100
     16 C16        -0.1290    2.5310   56.7184 C.ar    1  ZINC000482187991   -0.1000
     17 C17         1.0999    1.9689   57.0093 C.ar    1  ZINC000482187991   -0.1200
     18 C18         2.0374    1.8002   56.0075 C.ar    1  ZINC000482187991   -0.1100
     19 C19         1.7457    2.1931   54.7147 C.ar    1  ZINC000482187991   -0.1200
     20 C20         0.5152    2.7513   54.4229 C.ar    1  ZINC000482187991   -0.1000
     21 C21        -2.8506    2.8217   55.9080 C.3     1  ZINC000482187991    0.2500
     22 F22        -4.0991    3.3616   55.5806 F       1  ZINC000482187991   -0.1900
     23 F23        -2.8366    1.4576   55.5980 F       1  ZINC000482187991   -0.2000
     24 C24        -1.9700    2.6639   48.3833 C.ar    1  ZINC000482187991   -0.1900
     25 C25        -1.7536    1.7942   47.3323 C.ar    1  ZINC000482187991    0.1400
     26 O26        -1.9728    0.4621   47.4970 O.3     1  ZINC000482187991   -0.3000
     27 C27        -1.1312   -0.2239   48.4260 C.3     1  ZINC000482187991    0.0200
     28 C28        -1.3168    2.2806   46.1021 C.ar    1  ZINC000482187991    0.0600
     29 O29        -1.1055    1.4223   45.0706 O.3     1  ZINC000482187991   -0.3100
     30 C30         0.1944    0.8376   44.9691 C.3     1  ZINC000482187991    0.0400
     31 H31         0.8680    5.0299   43.6757 H       1  ZINC000482187991    0.1100
     32 H32         0.6851    5.5499   45.3682 H       1  ZINC000482187991    0.0600
     33 H33         1.3873    3.9568   44.9975 H       1  ZINC000482187991    0.0600
     34 H34        -1.1250    5.5766   46.8412 H       1  ZINC000482187991    0.1500
     35 H35        -0.9937    3.6597   50.7041 H       1  ZINC000482187991    0.1100
     36 H36        -1.0607    5.3636   51.2145 H       1  ZINC000482187991    0.1100
     37 H37        -3.6658    4.9767   51.2323 H       1  ZINC000482187991    0.1000
     38 H38        -3.2267    3.2537   51.3153 H       1  ZINC000482187991    0.1000
     39 H39        -1.8002    2.5777   53.2150 H       1  ZINC000482187991    0.4100
     40 H40        -0.8615    2.6628   57.5011 H       1  ZINC000482187991    0.1200
     41 H41         1.3278    1.6619   58.0194 H       1  ZINC000482187991    0.1300
     42 H42         2.9978    1.3616   56.2350 H       1  ZINC000482187991    0.1300
     43 H43         2.4783    2.0616   53.9321 H       1  ZINC000482187991    0.1300
     44 H44         0.2874    3.0583   53.4128 H       1  ZINC000482187991    0.1300
     45 H45        -2.6657    2.9540   56.9740 H       1  ZINC000482187991    0.1200
     46 H46        -2.3123    2.2867   49.3356 H       1  ZINC000482187991    0.1500
     47 H47        -0.0920   -0.1350   48.1092 H       1  ZINC000482187991    0.0600
     48 H48        -1.2481    0.2167   49.4162 H       1  ZINC000482187991    0.0600
     49 H49        -1.4115   -1.2766   48.4614 H       1  ZINC000482187991    0.1100
     50 H50         0.9389    1.6251   44.8520 H       1  ZINC000482187991    0.0500
     51 H51         0.4080    0.2673   45.8732 H       1  ZINC000482187991    0.0500
     52 H52         0.2281    0.1744   44.1047 H       1  ZINC000482187991    0.1000
@<TRIPOS>BOND
     1     1     2    1
     2     1    31    1
     3     1    32    1
     4     1    33    1
     5     2     3    1
     6     3    28   ar
     7     3     4   ar
     8     4     5   ar
     9     4    34    1
    10     5     6    1
    11     5    24   ar
    12     6     7    2
    13     6     8    1
    14     8     9    1
    15     8    35    1
    16     8    36    1
    17     9    10    1
    18     9    37    1
    19     9    38    1
    20    10    11    2
    21    10    12   am
    22    12    13    1
    23    12    39    1
    24    13    14    1
    25    13    15    1
    26    13    21    1
    27    15    20   ar
    28    15    16   ar
    29    16    17   ar
    30    16    40    1
    31    17    18   ar
    32    17    41    1
    33    18    19   ar
    34    18    42    1
    35    19    20   ar
    36    19    43    1
    37    20    44    1
    38    21    22    1
    39    21    23    1
    40    21    45    1
    41    24    25   ar
    42    24    46    1
    43    25    26    1
    44    25    28   ar
    45    26    27    1
    46    27    47    1
    47    27    48    1
    48    27    49    1
    49    28    29    1
    50    29    30    1
    51    30    50    1
    52    30    51    1
    53    30    52    1
@<TRIPOS>SUBSTRUCTURE
     1 ZINC000482187991        1 TEMP              0 ****  ****    0 ROOT


##########                                Name:    ZINC000508782983
##########                DOCK_Rotatable_Bonds:                   9
##########                         Heavy_Atoms:                  27
##########                    Molecular_Weight:             373.458
##########                DOCK_Rotatable_Bonds:                   9
##########                       Formal_Charge:          -0.0200006
##########                     HBond_Acceptors:                   9
##########                        HBond_Donors:                   2
##########                         Heavy_Atoms:                  27
##########                          Grid_Score:          -34.751041
##########                     Grid_vdw_energy:          -33.968388
##########                      Grid_es_energy:           -0.782653
##########           Internal_energy_repulsive:           15.613732

@<TRIPOS>MOLECULE
ZINC000508782983
 54 56 1 0 0
SMALL
USER_CHARGES


@<TRIPOS>ATOM
      1 C1         -5.4381    3.3606   57.1741 C.3     1  ZINC000508782983   -0.1500
      2 C2         -4.3540    3.0801   56.1317 C.3     1  ZINC000508782983   -0.1100
      3 C3         -4.9619    3.1585   54.7298 C.3     1  ZINC000508782983   -0.1500
      4 C4         -3.2391    4.1196   56.2629 C.3     1  ZINC000508782983    0.1000
      5 N5         -2.1239    3.7531   55.3863 N.pl3   1  ZINC000508782983   -0.4400
      6 C6         -1.1986    2.7710   55.6168 C.2     1  ZINC000508782983   -0.0400
      7 C7         -0.3589    2.7720   54.5639 C.2     1  ZINC000508782983   -0.0300
      8 N8         -0.7606    3.7286   53.7138 N.2     1  ZINC000508782983   -0.4700
      9 C9         -1.8202    4.3170   54.1975 C.2     1  ZINC000508782983    0.1700
     10 C10        -2.5744    5.4453   53.5424 C.3     1  ZINC000508782983    0.2100
     11 N11        -2.1375    5.5814   52.1507 N.am    1  ZINC000508782983   -0.6900
     12 C12        -2.8735    5.0441   51.1576 C.2     1  ZINC000508782983    0.5100
     13 O13        -3.8973    4.4463   51.4165 O.2     1  ZINC000508782983   -0.5100
     14 C14        -2.4287    5.1845   49.7377 C.2     1  ZINC000508782983    0.5100
     15 O15        -2.8025    6.1302   49.0756 O.2     1  ZINC000508782983   -0.5200
     16 N16        -1.6125    4.2608   49.1927 N.am    1  ZINC000508782983   -0.5800
     17 C17        -1.1528    3.1037   49.9757 C.3     1  ZINC000508782983    0.0800
     18 C18        -1.4291    1.8299   49.1699 C.3     1  ZINC000508782983    0.0400
     19 N19        -0.8256    1.9571   47.8366 N.3     1  ZINC000508782983   -0.5400
     20 C20        -0.9188    0.6931   47.0939 C.3     1  ZINC000508782983    0.1400
     21 C21        -0.1509   -0.3773   47.8259 C.2     1  ZINC000508782983    0.2100
     22 N22         1.0929   -0.2923   48.2116 N.2     1  ZINC000508782983   -0.4900
     23 C23         1.4426   -1.4293   48.8311 C.2     1  ZINC000508782983   -0.0300
     24 C24         0.3751   -2.2501   48.8292 C.2     1  ZINC000508782983   -0.0500
     25 N25        -0.6377   -1.5813   48.1963 N.pl3   1  ZINC000508782983   -0.5600
     26 C26        -1.4343    3.0589   47.0792 C.3     1  ZINC000508782983    0.0400
     27 C27        -1.1630    4.3798   47.7974 C.3     1  ZINC000508782983    0.1100
     28 H28        -6.2324    2.6200   57.0805 H       1  ZINC000508782983    0.0700
     29 H29        -5.0050    3.3047   58.1728 H       1  ZINC000508782983    0.0600
     30 H30        -5.8493    4.3569   57.0116 H       1  ZINC000508782983    0.0600
     31 H31        -3.9428    2.0837   56.2940 H       1  ZINC000508782983    0.0800
     32 H32        -5.4408    4.1283   54.5952 H       1  ZINC000508782983    0.0600
     33 H33        -4.1755    3.0352   53.9852 H       1  ZINC000508782983    0.0600
     34 H34        -5.7026    2.3678   54.6102 H       1  ZINC000508782983    0.0600
     35 H35        -3.6203    5.0994   55.9753 H       1  ZINC000508782983    0.1000
     36 H36        -2.8933    4.1530   57.2960 H       1  ZINC000508782983    0.0900
     37 H37        -1.1508    2.1206   56.4777 H       1  ZINC000508782983    0.1800
     38 H38         0.4892    2.1173   54.4279 H       1  ZINC000508782983    0.1700
     39 H39        -3.6429    5.2315   53.5684 H       1  ZINC000508782983    0.0900
     40 H40        -2.3764    6.3739   54.0777 H       1  ZINC000508782983    0.1100
     41 H41        -1.3185    6.0582   51.9438 H       1  ZINC000508782983    0.4200
     42 H42        -0.0830    3.1919   50.1657 H       1  ZINC000508782983    0.0800
     43 H43        -1.6933    3.0632   50.9213 H       1  ZINC000508782983    0.1400
     44 H44        -0.9958    0.9725   49.6850 H       1  ZINC000508782983    0.0900
     45 H45        -2.5053    1.6889   49.0702 H       1  ZINC000508782983    0.0400
     46 H46        -1.9644    0.3971   47.0100 H       1  ZINC000508782983    0.0900
     47 H47        -0.4975    0.8253   46.0973 H       1  ZINC000508782983    0.0700
     48 H48         2.4107   -1.6481   49.2569 H       1  ZINC000508782983    0.1700
     49 H49         0.3261   -3.2436   49.2499 H       1  ZINC000508782983    0.1800
     50 H50        -1.5356   -1.9123   48.0385 H       1  ZINC000508782983    0.4200
     51 H51        -1.0046    3.0928   46.0780 H       1  ZINC000508782983    0.1100
     52 H52        -2.5104    2.9008   47.0086 H       1  ZINC000508782983    0.0400
     53 H53        -1.7077    5.1840   47.3029 H       1  ZINC000508782983    0.1000
     54 H54        -0.0942    4.5932   47.7803 H       1  ZINC000508782983    0.0800
@<TRIPOS>BOND
     1     1     2    1
     2     1    28    1
     3     1    29    1
     4     1    30    1
     5     2     3    1
     6     2     4    1
     7     2    31    1
     8     3    32    1
     9     3    33    1
    10     3    34    1
    11     4     5    1
    12     4    35    1
    13     4    36    1
    14     5     9    1
    15     5     6    1
    16     6     7    2
    17     6    37    1
    18     7     8    1
    19     7    38    1
    20     8     9    2
    21     9    10    1
    22    10    11    1
    23    10    39    1
    24    10    40    1
    25    11    12   am
    26    11    41    1
    27    12    13    2
    28    12    14    1
    29    14    15    2
    30    14    16   am
    31    16    27    1
    32    16    17    1
    33    17    18    1
    34    17    42    1
    35    17    43    1
    36    18    19    1
    37    18    44    1
    38    18    45    1
    39    19    20    1
    40    19    26    1
    41    20    21    1
    42    20    46    1
    43    20    47    1
    44    21    25    1
    45    21    22    2
    46    22    23    1
    47    23    24    2
    48    23    48    1
    49    24    25    1
    50    24    49    1
    51    25    50    1
    52    26    27    1
    53    26    51    1
    54    26    52    1
    55    27    53    1
    56    27    54    1
@<TRIPOS>SUBSTRUCTURE
     1 ZINC000508782983        1 TEMP              0 ****  ****    0 ROOT


##########                                Name:    ZINC000499369364
##########                DOCK_Rotatable_Bonds:                   9
##########                         Heavy_Atoms:                  25
##########                    Molecular_Weight:             384.527
##########                DOCK_Rotatable_Bonds:                   9
##########                       Formal_Charge:        -5.88596e-07
##########                     HBond_Acceptors:                  10
##########                        HBond_Donors:                   1
##########                         Heavy_Atoms:                  25
##########                          Grid_Score:          -34.684078
##########                     Grid_vdw_energy:          -33.502396
##########                      Grid_es_energy:           -1.181682
##########           Internal_energy_repulsive:           19.256613

@<TRIPOS>MOLECULE
ZINC000499369364
 49 51 1 0 0
SMALL
USER_CHARGES


@<TRIPOS>ATOM
      1 C1         -9.1564    1.8174   56.1589 C.3     1  ZINC000499369364   -0.1500
      2 C2         -9.3144    1.6575   57.6724 C.3     1  ZINC000499369364   -0.1000
      3 C3        -10.6469    0.9698   57.9762 C.3     1  ZINC000499369364   -0.1500
      4 C4         -8.1655    0.8070   58.2179 C.3     1  ZINC000499369364    0.1500
      5 H5         -8.0869   -0.1126   57.6380 H       1  ZINC000499369364    0.0900
      6 C6         -6.8557    1.5906   58.1114 C.3     1  ZINC000499369364   -0.1700
      7 N7         -8.4252    0.4784   59.6218 N.am    1  ZINC000499369364   -0.7200
      8 C8         -7.9354   -0.6614   60.1488 C.2     1  ZINC000499369364    0.5100
      9 O9         -7.2786   -1.4142   59.4613 O.2     1  ZINC000499369364   -0.5100
     10 C10        -8.2041   -1.0003   61.5924 C.3     1  ZINC000499369364    0.1200
     11 H11        -7.7710   -1.9771   61.8084 H       1  ZINC000499369364    0.1200
     12 C12        -7.5173    0.0566   62.4870 C.3     1  ZINC000499369364   -0.0800
     13 S13        -8.9243    1.1868   62.8567 S.3     1  ZINC000499369364   -0.2400
     14 C14       -10.1792   -0.1594   62.8220 C.3     1  ZINC000499369364    0.1400
     15 N15        -9.6429   -1.0710   61.7964 N.am    1  ZINC000499369364   -0.6000
     16 C16       -10.4280   -1.9141   61.0971 C.2     1  ZINC000499369364    0.5600
     17 O17        -9.9394   -2.6468   60.2631 O.2     1  ZINC000499369364   -0.5000
     18 C18       -11.9131   -1.9465   61.3513 C.3     1  ZINC000499369364   -0.1500
     19 S19       -12.7828   -1.2218   59.9390 S.3     1  ZINC000499369364    0.1300
     20 C20       -13.9881   -2.4735   59.6468 C.2     1  ZINC000499369364    0.2000
     21 N21       -14.8470   -2.9508   60.5214 N.2     1  ZINC000499369364   -0.3400
     22 N22       -15.5834   -3.8539   59.9817 N.2     1  ZINC000499369364   -0.0300
     23 N23       -15.2570   -4.0186   58.7456 N.2     1  ZINC000499369364   -0.0800
     24 N24       -14.2085   -3.1210   58.4783 N.pl3   1  ZINC000499369364   -0.3300
     25 C25       -13.5001   -2.9330   57.2099 C.3     1  ZINC000499369364    0.0500
     26 C26       -12.1264   -3.5908   57.0637 C.3     1  ZINC000499369364   -0.1500
     27 C27       -13.3301   -4.1568   56.3075 C.3     1  ZINC000499369364   -0.1600
     28 H28        -9.9749    2.4233   55.7702 H       1  ZINC000499369364    0.0600
     29 H29        -8.2071    2.3073   55.9425 H       1  ZINC000499369364    0.0600
     30 H30        -9.1747    0.8355   55.6859 H       1  ZINC000499369364    0.0600
     31 H31        -9.2961    2.6394   58.1453 H       1  ZINC000499369364    0.0800
     32 H32       -11.4654    1.5757   57.5875 H       1  ZINC000499369364    0.0600
     33 H33       -10.6652   -0.0120   57.5032 H       1  ZINC000499369364    0.0600
     34 H34       -10.7594    0.8558   59.0544 H       1  ZINC000499369364    0.0500
     35 H35        -6.9342    2.5102   58.6913 H       1  ZINC000499369364    0.0600
     36 H36        -6.0372    0.9847   58.5001 H       1  ZINC000499369364    0.0600
     37 H37        -6.6624    1.8352   57.0669 H       1  ZINC000499369364    0.0700
     38 H38        -8.9495    1.0811   60.1720 H       1  ZINC000499369364    0.4000
     39 H39        -7.1284   -0.3957   63.3994 H       1  ZINC000499369364    0.1200
     40 H40        -6.7292    0.5773   61.9433 H       1  ZINC000499369364    0.1300
     41 H41       -10.2395   -0.6568   63.7900 H       1  ZINC000499369364    0.1100
     42 H42       -11.1535    0.2278   62.5236 H       1  ZINC000499369364    0.1200
     43 H43       -12.2362   -2.9787   61.4862 H       1  ZINC000499369364    0.1300
     44 H44       -12.1403   -1.3741   62.2506 H       1  ZINC000499369364    0.1300
     45 H45       -13.6503   -1.9679   56.7261 H       1  ZINC000499369364    0.1600
     46 H46       -11.3726   -3.0584   56.4836 H       1  ZINC000499369364    0.1200
     47 H47       -11.7499   -4.1634   57.9112 H       1  ZINC000499369364    0.1200
     48 H48       -13.7454   -5.1018   56.6576 H       1  ZINC000499369364    0.1100
     49 H49       -13.3682   -3.9968   55.2300 H       1  ZINC000499369364    0.1200
@<TRIPOS>BOND
     1     1     2    1
     2     1    28    1
     3     1    29    1
     4     1    30    1
     5     2     3    1
     6     2     4    1
     7     2    31    1
     8     3    32    1
     9     3    33    1
    10     3    34    1
    11     4     5    1
    12     4     6    1
    13     4     7    1
    14     6    35    1
    15     6    36    1
    16     6    37    1
    17     7     8   am
    18     7    38    1
    19     8     9    2
    20     8    10    1
    21    10    11    1
    22    10    15    1
    23    10    12    1
    24    12    13    1
    25    12    39    1
    26    12    40    1
    27    13    14    1
    28    14    15    1
    29    14    41    1
    30    14    42    1
    31    15    16   am
    32    16    17    2
    33    16    18    1
    34    18    19    1
    35    18    43    1
    36    18    44    1
    37    19    20    1
    38    20    24    1
    39    20    21    2
    40    21    22    1
    41    22    23    2
    42    23    24    1
    43    24    25    1
    44    25    27    1
    45    25    26    1
    46    25    45    1
    47    26    27    1
    48    26    46    1
    49    26    47    1
    50    27    48    1
    51    27    49    1
@<TRIPOS>SUBSTRUCTURE
     1 ZINC000499369364        1 TEMP              0 ****  ****    0 ROOT


##########                                Name:    ZINC000008416770
##########                DOCK_Rotatable_Bonds:                  13
##########                         Heavy_Atoms:                  30
##########                    Molecular_Weight:             412.442
##########                DOCK_Rotatable_Bonds:                  13
##########                       Formal_Charge:          -0.0199998
##########                     HBond_Acceptors:                   8
##########                        HBond_Donors:                   2
##########                         Heavy_Atoms:                  30
##########                          Grid_Score:          -34.668831
##########                     Grid_vdw_energy:          -34.144032
##########                      Grid_es_energy:           -0.524798
##########           Internal_energy_repulsive:            9.421385

@<TRIPOS>MOLECULE
ZINC000008416770
 54 55 1 0 0
SMALL
USER_CHARGES


@<TRIPOS>ATOM
      1 C1         -8.0488    0.1658   65.6054 C.3     1  ZINC000008416770   -0.1500
      2 C2         -8.2941   -0.5625   64.2824 C.3     1  ZINC000008416770    0.0600
      3 O3         -7.9091    0.2977   63.1778 O.3     1  ZINC000008416770   -0.3500
      4 C4         -8.0721   -0.1941   61.9338 C.2     1  ZINC000008416770    0.5100
      5 O5         -8.5591   -1.2958   61.7751 O.2     1  ZINC000008416770   -0.5100
      6 C6         -7.6593    0.6049   60.7651 C.ar    1  ZINC000008416770   -0.1500
      7 C7         -7.8098    0.0885   59.4747 C.ar    1  ZINC000008416770   -0.0400
      8 C8         -7.4238    0.8373   58.3862 C.ar    1  ZINC000008416770   -0.1400
      9 C9         -6.8844    2.1069   58.5689 C.ar    1  ZINC000008416770    0.1800
     10 N10        -6.4946    2.8625   57.4641 N.am    1  ZINC000008416770   -0.6700
     11 C11        -5.5117    2.4177   56.6564 C.2     1  ZINC000008416770    0.5200
     12 O12        -4.9663    1.3601   56.8906 O.2     1  ZINC000008416770   -0.5100
     13 C13        -5.0904    3.2346   55.4621 C.3     1  ZINC000008416770   -0.1300
     14 C14        -3.5627    3.2832   55.3908 C.3     1  ZINC000008416770   -0.1000
     15 C15        -3.1384    4.3880   54.4579 C.2     1  ZINC000008416770    0.4700
     16 O16        -3.4880    5.5251   54.6694 O.2     1  ZINC000008416770   -0.5100
     17 O17        -2.3721    4.1088   53.3917 O.3     1  ZINC000008416770   -0.3300
     18 C18        -2.2691    5.1329   52.3676 C.3     1  ZINC000008416770    0.0500
     19 C19        -1.8324    4.5034   51.0699 C.2     1  ZINC000008416770    0.5100
     20 O20        -0.6656    4.5391   50.7408 O.2     1  ZINC000008416770   -0.4900
     21 N21        -2.7386    3.9005   50.2750 N.am    1  ZINC000008416770   -0.6700
     22 C22        -2.3332    3.3159   49.0700 C.ar    1  ZINC000008416770    0.1400
     23 C23        -1.7042    4.0856   48.1002 C.ar    1  ZINC000008416770   -0.1400
     24 C24        -1.3053    3.5056   46.9119 C.ar    1  ZINC000008416770   -0.1000
     25 C25        -1.5320    2.1602   46.6872 C.ar    1  ZINC000008416770   -0.1000
     26 C26        -1.0957    1.5307   45.3892 C.3     1  ZINC000008416770   -0.1200
     27 C27        -2.1576    1.3910   47.6511 C.ar    1  ZINC000008416770   -0.1000
     28 C28        -2.5538    1.9636   48.8437 C.ar    1  ZINC000008416770   -0.1200
     29 C29        -6.7336    2.6243   59.8519 C.ar    1  ZINC000008416770   -0.1600
     30 C30        -7.1219    1.8831   60.9448 C.ar    1  ZINC000008416770   -0.0300
     31 H31        -6.9916    0.4165   65.6916 H       1  ZINC000008416770    0.0700
     32 H32        -8.6424    1.0796   65.6325 H       1  ZINC000008416770    0.0700
     33 H33        -8.3379   -0.4799   66.4345 H       1  ZINC000008416770    0.0800
     34 H34        -7.7005   -1.4763   64.2552 H       1  ZINC000008416770    0.0700
     35 H35        -9.3513   -0.8133   64.1962 H       1  ZINC000008416770    0.0700
     36 H36        -8.2280   -0.8970   59.3322 H       1  ZINC000008416770    0.1400
     37 H37        -7.5394    0.4389   57.3891 H       1  ZINC000008416770    0.1400
     38 H38        -6.9309    3.7084   57.2767 H       1  ZINC000008416770    0.4200
     39 H39        -5.4821    2.7781   54.5531 H       1  ZINC000008416770    0.1100
     40 H40        -5.4820    4.2473   55.5581 H       1  ZINC000008416770    0.1100
     41 H41        -3.1585    3.4722   56.3853 H       1  ZINC000008416770    0.1200
     42 H42        -3.1858    2.3299   55.0205 H       1  ZINC000008416770    0.1200
     43 H43        -3.2398    5.6097   52.2317 H       1  ZINC000008416770    0.1100
     44 H44        -1.5369    5.8802   52.6734 H       1  ZINC000008416770    0.1100
     45 H45        -3.6717    3.8717   50.5381 H       1  ZINC000008416770    0.4100
     46 H46        -1.5276    5.1366   48.2748 H       1  ZINC000008416770    0.1300
     47 H47        -0.8161    4.1036   46.1572 H       1  ZINC000008416770    0.1300
     48 H48        -0.0774    1.1558   45.4914 H       1  ZINC000008416770    0.0700
     49 H49        -1.7639    0.7053   45.1431 H       1  ZINC000008416770    0.0700
     50 H50        -1.1306    2.2757   44.5943 H       1  ZINC000008416770    0.0700
     51 H51        -2.3332    0.3403   47.4725 H       1  ZINC000008416770    0.1300
     52 H52        -3.0424    1.3623   49.5962 H       1  ZINC000008416770    0.1300
     53 H53        -6.3150    3.6102   59.9900 H       1  ZINC000008416770    0.1400
     54 H54        -7.0045    2.2853   61.9401 H       1  ZINC000008416770    0.1400
@<TRIPOS>BOND
     1     1     2    1
     2     1    31    1
     3     1    32    1
     4     1    33    1
     5     2     3    1
     6     2    34    1
     7     2    35    1
     8     3     4    1
     9     4     5    2
    10     4     6    1
    11     6    30   ar
    12     6     7   ar
    13     7     8   ar
    14     7    36    1
    15     8     9   ar
    16     8    37    1
    17     9    10    1
    18     9    29   ar
    19    10    11   am
    20    10    38    1
    21    11    12    2
    22    11    13    1
    23    13    14    1
    24    13    39    1
    25    13    40    1
    26    14    15    1
    27    14    41    1
    28    14    42    1
    29    15    16    2
    30    15    17    1
    31    17    18    1
    32    18    19    1
    33    18    43    1
    34    18    44    1
    35    19    20    2
    36    19    21   am
    37    21    22    1
    38    21    45    1
    39    22    28   ar
    40    22    23   ar
    41    23    24   ar
    42    23    46    1
    43    24    25   ar
    44    24    47    1
    45    25    26    1
    46    25    27   ar
    47    26    48    1
    48    26    49    1
    49    26    50    1
    50    27    28   ar
    51    27    51    1
    52    28    52    1
    53    29    30   ar
    54    29    53    1
    55    30    54    1
@<TRIPOS>SUBSTRUCTURE
     1 ZINC000008416770        1 TEMP              0 ****  ****    0 ROOT


##########                                Name:    ZINC000489403631
##########                DOCK_Rotatable_Bonds:                   7
##########                         Heavy_Atoms:                  28
##########                    Molecular_Weight:             381.391
##########                DOCK_Rotatable_Bonds:                   7
##########                       Formal_Charge:          -0.0300003
##########                     HBond_Acceptors:                   9
##########                        HBond_Donors:                   1
##########                         Heavy_Atoms:                  28
##########                          Grid_Score:          -34.645947
##########                     Grid_vdw_energy:          -35.439224
##########                      Grid_es_energy:            0.793279
##########           Internal_energy_repulsive:           13.324917

@<TRIPOS>MOLECULE
ZINC000489403631
 47 49 1 0 0
SMALL
USER_CHARGES


@<TRIPOS>ATOM
      1 C1         -0.6713   -0.4928   47.3606 C.3     1  ZINC000489403631   -0.1100
      2 C2         -0.9767    0.9727   47.1882 C.ar    1  ZINC000489403631   -0.0800
      3 C3         -1.0060    1.8058   48.2886 C.ar    1  ZINC000489403631   -0.0900
      4 C4         -1.2875    3.1564   48.1295 C.ar    1  ZINC000489403631    0.1200
      5 N5         -1.3169    4.0023   49.2458 N.am    1  ZINC000489403631   -0.6600
      6 C6         -2.3220    3.9054   50.1384 C.2     1  ZINC000489403631    0.5100
      7 O7         -3.2012    3.0858   49.9753 O.2     1  ZINC000489403631   -0.4600
      8 C8         -2.3536    4.8154   51.3393 C.3     1  ZINC000489403631    0.1700
      9 C9         -0.9330    5.2820   51.6632 C.3     1  ZINC000489403631   -0.1700
     10 C10        -3.2327    6.0302   51.0357 C.3     1  ZINC000489403631   -0.1700
     11 N11        -2.9030    4.0899   52.4874 N.pl3   1  ZINC000489403631   -0.3400
     12 C12        -2.1893    3.4588   53.4431 C.2     1  ZINC000489403631    0.1500
     13 C13        -3.0647    2.9151   54.3202 C.2     1  ZINC000489403631   -0.1900
     14 N14        -2.7156    2.1321   55.5268 N.pl3   1  ZINC000489403631    0.0700
     15 O15        -1.5994    2.2179   56.0067 O.2     1  ZINC000489403631   -0.1700
     16 O16        -3.5446    1.4018   56.0398 O.2     1  ZINC000489403631   -0.1600
     17 C17        -4.3577    3.2245   53.8856 C.2     1  ZINC000489403631    0.1000
     18 N18        -4.2617    3.9339   52.7903 N.2     1  ZINC000489403631   -0.2200
     19 C19        -1.5394    3.6680   46.8637 C.ar    1  ZINC000489403631   -0.1100
     20 C20        -1.5098    2.8337   45.7636 C.ar    1  ZINC000489403631   -0.1700
     21 C21        -1.2229    1.4858   45.9225 C.ar    1  ZINC000489403631    0.1000
     22 O22        -1.1940    0.6649   44.8391 O.3     1  ZINC000489403631   -0.2500
     23 C23        -0.1059    0.7165   44.0295 C.ar    1  ZINC000489403631    0.1400
     24 C24        -0.0931    0.0492   42.8069 C.ar    1  ZINC000489403631   -0.2000
     25 C25         1.0323    0.1263   42.0125 C.ar    1  ZINC000489403631    0.1200
     26 N26         2.0862    0.8205   42.3983 N.ar    1  ZINC000489403631   -0.4900
     27 C27         2.1121    1.4661   43.5490 C.ar    1  ZINC000489403631    0.1200
     28 C28         1.0242    1.4429   44.3973 C.ar    1  ZINC000489403631   -0.1800
     29 H29         0.4046   -0.6509   47.2865 H       1  ZINC000489403631    0.0700
     30 H30        -1.0206   -0.8241   48.3386 H       1  ZINC000489403631    0.0700
     31 H31        -1.1770   -1.0635   46.5817 H       1  ZINC000489403631    0.0700
     32 H32        -0.8105    1.4072   49.2732 H       1  ZINC000489403631    0.1500
     33 H33        -0.6139    4.6577   49.3763 H       1  ZINC000489403631    0.4100
     34 H34        -0.5242    5.8218   50.8089 H       1  ZINC000489403631    0.1000
     35 H35        -0.9558    5.9402   52.5317 H       1  ZINC000489403631    0.0900
     36 H36        -0.3067    4.4165   51.8795 H       1  ZINC000489403631    0.0800
     37 H37        -4.2448    5.6978   50.8049 H       1  ZINC000489403631    0.0800
     38 H38        -3.2556    6.6884   51.9042 H       1  ZINC000489403631    0.0900
     39 H39        -2.8239    6.5700   50.1814 H       1  ZINC000489403631    0.0900
     40 H40        -1.1124    3.3982   53.4980 H       1  ZINC000489403631    0.2000
     41 H41        -5.2763    2.9327   54.3726 H       1  ZINC000489403631    0.2100
     42 H42        -1.7587    4.7182   46.7394 H       1  ZINC000489403631    0.1300
     43 H43        -1.7056    3.2316   44.7788 H       1  ZINC000489403631    0.1300
     44 H44        -0.9520   -0.5210   42.4854 H       1  ZINC000489403631    0.1400
     45 H45         1.0512   -0.3883   41.0631 H       1  ZINC000489403631    0.1600
     46 H46         2.9944    2.0228   43.8284 H       1  ZINC000489403631    0.1700
     47 H47         1.0518    1.9736   45.3375 H       1  ZINC000489403631    0.1500
@<TRIPOS>BOND
     1     1     2    1
     2     1    29    1
     3     1    30    1
     4     1    31    1
     5     2    21   ar
     6     2     3   ar
     7     3     4   ar
     8     3    32    1
     9     4     5    1
    10     4    19   ar
    11     5     6   am
    12     5    33    1
    13     6     7    2
    14     6     8    1
    15     8     9    1
    16     8    10    1
    17     8    11    1
    18     9    34    1
    19     9    35    1
    20     9    36    1
    21    10    37    1
    22    10    38    1
    23    10    39    1
    24    11    18    1
    25    11    12    1
    26    12    13    2
    27    12    40    1
    28    13    14    1
    29    13    17    1
    30    14    15    2
    31    14    16    2
    32    17    18    2
    33    17    41    1
    34    19    20   ar
    35    19    42    1
    36    20    21   ar
    37    20    43    1
    38    21    22    1
    39    22    23    1
    40    23    28   ar
    41    23    24   ar
    42    24    25   ar
    43    24    44    1
    44    25    26   ar
    45    25    45    1
    46    26    27   ar
    47    27    28   ar
    48    27    46    1
    49    28    47    1
@<TRIPOS>SUBSTRUCTURE
     1 ZINC000489403631        1 TEMP              0 ****  ****    0 ROOT


##########                                Name:    ZINC001083519372
##########                DOCK_Rotatable_Bonds:                   7
##########                         Heavy_Atoms:                  27
##########                    Molecular_Weight:             370.411
##########                DOCK_Rotatable_Bonds:                   7
##########                       Formal_Charge:           0.0399996
##########                     HBond_Acceptors:                   9
##########                        HBond_Donors:                   2
##########                         Heavy_Atoms:                  27
##########                          Grid_Score:          -34.609283
##########                     Grid_vdw_energy:          -33.937771
##########                      Grid_es_energy:           -0.671511
##########           Internal_energy_repulsive:           10.073018

@<TRIPOS>MOLECULE
ZINC001083519372
 49 52 1 0 0
SMALL
USER_CHARGES


@<TRIPOS>ATOM
      1 C1         -1.5208    5.1275   54.2777 C.3     1  ZINC001083519372   -0.1500
      2 C2         -1.2328    4.4202   52.9520 C.3     1  ZINC001083519372   -0.0100
      3 C3         -0.1014    3.4091   53.1488 C.3     1  ZINC001083519372   -0.1500
      4 C4         -2.4729    3.7019   52.4860 C.2     1  ZINC001083519372   -0.0100
      5 C5         -2.8222    3.4573   51.2122 C.2     1  ZINC001083519372   -0.0100
      6 C6         -2.0424    3.8526   49.9847 C.3     1  ZINC001083519372    0.1300
      7 N7         -2.2534    2.8541   48.9280 N.3     1  ZINC001083519372   -0.5000
      8 C8         -1.4578    3.1837   47.7178 C.3     1  ZINC001083519372    0.0300
      9 C9         -1.3772    1.8307   46.9673 C.3     1  ZINC001083519372    0.1500
     10 H10        -2.2905    1.6486   46.4008 H       1  ZINC001083519372    0.1200
     11 N11        -0.2072    1.7955   46.0863 N.am    1  ZINC001083519372   -0.6900
     12 C12        -0.2191    1.0250   44.9806 C.2     1  ZINC001083519372    0.5600
     13 O13        -1.2015    0.3601   44.7135 O.2     1  ZINC001083519372   -0.5100
     14 C14         0.9595    0.9882   44.0945 C.2     1  ZINC001083519372    0.1400
     15 C15         2.1472    1.5414   44.4908 C.2     1  ZINC001083519372   -0.1500
     16 C16         3.2488    1.4904   43.6262 C.2     1  ZINC001083519372    0.1800
     17 N17         3.1451    0.9197   42.4501 N.2     1  ZINC001083519372   -0.4400
     18 C18         1.9939    0.3738   42.0446 C.2     1  ZINC001083519372    0.2500
     19 C19         1.6231   -0.2776   40.8732 C.2     1  ZINC001083519372   -0.2500
     20 C20         0.2914   -0.6378   40.9960 C.2     1  ZINC001083519372    0.1000
     21 N21        -0.1540   -0.2411   42.1683 N.2     1  ZINC001083519372   -0.3100
     22 N22         0.8867    0.3922   42.8561 N.pl3   1  ZINC001083519372   -0.3100
     23 C23        -1.2327    0.8062   48.1161 C.3     1  ZINC001083519372    0.0900
     24 H24        -1.8139   -0.0900   47.8991 H       1  ZINC001083519372    0.0800
     25 O25         0.1425    0.4697   48.3105 O.3     1  ZINC001083519372   -0.5600
     26 C26        -1.7923    1.5175   49.3620 C.3     1  ZINC001083519372    0.0100
     27 N27        -3.9930    2.7961   51.2299 N.2     1  ZINC001083519372   -0.4800
     28 C28        -4.3622    2.6333   52.4683 C.2     1  ZINC001083519372    0.1700
     29 O29        -3.4370    3.1792   53.2689 O.3     1  ZINC001083519372   -0.2000
     30 H30        -2.3269    5.8477   54.1377 H       1  ZINC001083519372    0.0600
     31 H31        -1.8172    4.3916   55.0253 H       1  ZINC001083519372    0.0600
     32 H32        -0.6239    5.6470   54.6148 H       1  ZINC001083519372    0.0700
     33 H33        -0.9365    5.1560   52.2045 H       1  ZINC001083519372    0.1000
     34 H34        -0.3976    2.6732   53.8963 H       1  ZINC001083519372    0.0600
     35 H35         0.1039    2.9052   52.2043 H       1  ZINC001083519372    0.0600
     36 H36         0.7956    3.9286   53.4859 H       1  ZINC001083519372    0.0700
     37 H37        -2.3827    4.8278   49.6364 H       1  ZINC001083519372    0.0900
     38 H38        -0.9814    3.9040   50.2293 H       1  ZINC001083519372    0.0600
     39 H39        -1.9713    3.9300   47.1114 H       1  ZINC001083519372    0.1000
     40 H40        -0.4622    3.5302   47.9945 H       1  ZINC001083519372    0.0600
     41 H41         0.5761    2.3269   46.2987 H       1  ZINC001083519372    0.4300
     42 H42         2.2342    2.0121   45.4589 H       1  ZINC001083519372    0.1800
     43 H43         4.1898    1.9247   43.9304 H       1  ZINC001083519372    0.1900
     44 H44         2.2589   -0.4681   40.0212 H       1  ZINC001083519372    0.1700
     45 H45        -0.2881   -1.1602   40.2492 H       1  ZINC001083519372    0.2000
     46 H46         0.5424    0.0028   47.5640 H       1  ZINC001083519372    0.3900
     47 H47        -1.0097    1.6207   50.1136 H       1  ZINC001083519372    0.0700
     48 H48        -2.6292    0.9501   49.7690 H       1  ZINC001083519372    0.0900
     49 H49        -5.2634    2.1365   52.7959 H       1  ZINC001083519372    0.2500
@<TRIPOS>BOND
     1     1     2    1
     2     1    30    1
     3     1    31    1
     4     1    32    1
     5     2     3    1
     6     2     4    1
     7     2    33    1
     8     3    34    1
     9     3    35    1
    10     3    36    1
    11     4    29    1
    12     4     5    2
    13     5     6    1
    14     5    27    1
    15     6     7    1
    16     6    37    1
    17     6    38    1
    18     7    26    1
    19     7     8    1
    20     8     9    1
    21     8    39    1
    22     8    40    1
    23     9    10    1
    24     9    11    1
    25     9    23    1
    26    11    12   am
    27    11    41    1
    28    12    13    2
    29    12    14    1
    30    14    22    1
    31    14    15    2
    32    15    16    1
    33    15    42    1
    34    16    17    2
    35    16    43    1
    36    17    18    1
    37    18    22    1
    38    18    19    2
    39    19    20    1
    40    19    44    1
    41    20    21    2
    42    20    45    1
    43    21    22    1
    44    23    24    1
    45    23    25    1
    46    23    26    1
    47    25    46    1
    48    26    47    1
    49    26    48    1
    50    27    28    2
    51    28    29    1
    52    28    49    1
@<TRIPOS>SUBSTRUCTURE
     1 ZINC001083519372        1 TEMP              0 ****  ****    0 ROOT


##########                                Name:    ZINC000546115054
##########                DOCK_Rotatable_Bonds:                  10
##########                         Heavy_Atoms:                  26
##########                    Molecular_Weight:             363.457
##########                DOCK_Rotatable_Bonds:                  10
##########                       Formal_Charge:        -4.39584e-07
##########                     HBond_Acceptors:                   7
##########                        HBond_Donors:                   2
##########                         Heavy_Atoms:                  26
##########                          Grid_Score:          -34.596157
##########                     Grid_vdw_energy:          -31.584515
##########                      Grid_es_energy:           -3.011641
##########           Internal_energy_repulsive:           41.050888

@<TRIPOS>MOLECULE
ZINC000546115054
 55 56 1 0 0
SMALL
USER_CHARGES


@<TRIPOS>ATOM
      1 C1          1.4796   -2.1429   48.7868 C.3     1  ZINC000546115054   -0.1500
      2 C2          0.0917   -1.5475   48.5413 C.3     1  ZINC000546115054    0.0600
      3 O3          0.1658   -0.1220   48.6112 O.3     1  ZINC000546115054   -0.3700
      4 C4         -0.9458    0.5478   48.0131 C.3     1  ZINC000546115054    0.0500
      5 H5         -1.8735    0.0818   48.3453 H       1  ZINC000546115054    0.0700
      6 C6         -0.8418    0.4507   46.4888 C.3     1  ZINC000546115054    0.0400
      7 O7         -1.9227    1.1702   45.8921 O.3     1  ZINC000546115054   -0.3700
      8 C8         -1.9376    2.5648   46.2035 C.3     1  ZINC000546115054    0.0600
      9 C9         -2.0856    2.7468   47.7163 C.3     1  ZINC000546115054   -0.1600
     10 C10        -0.9372    2.0227   48.4260 C.3     1  ZINC000546115054    0.1700
     11 H11         0.0120    2.4749   48.1385 H       1  ZINC000546115054    0.1000
     12 N12        -1.1120    2.1305   49.8765 N.am    1  ZINC000546115054   -0.7300
     13 C13        -0.7786    3.2710   50.5126 C.2     1  ZINC000546115054    0.7200
     14 O14        -0.3316    4.2100   49.8828 O.2     1  ZINC000546115054   -0.5900
     15 N15        -0.9410    3.3706   51.8469 N.am    1  ZINC000546115054   -0.7200
     16 C16        -0.5770    4.6098   52.5385 C.3     1  ZINC000546115054    0.1600
     17 H17        -1.0830    5.4516   52.0660 H       1  ZINC000546115054    0.1200
     18 C18        -1.0008    4.5182   54.0058 C.3     1  ZINC000546115054   -0.1000
     19 C19        -2.3785    3.9142   54.0940 C.ar    1  ZINC000546115054   -0.0800
     20 C20        -3.3938    4.3872   53.2836 C.ar    1  ZINC000546115054   -0.1100
     21 C21        -4.6575    3.8331   53.3645 C.ar    1  ZINC000546115054   -0.1200
     22 C22        -4.9062    2.8059   54.2554 C.ar    1  ZINC000546115054   -0.1200
     23 C23        -3.8909    2.3323   55.0651 C.ar    1  ZINC000546115054   -0.1200
     24 C24        -2.6259    2.8833   54.9812 C.ar    1  ZINC000546115054   -0.1100
     25 C25         0.9144    4.8105   52.4580 C.2     1  ZINC000546115054    0.5000
     26 O26         1.3652    5.9007   52.1763 O.2     1  ZINC000546115054   -0.5200
     27 N27         1.7473    3.7787   52.6991 N.am    1  ZINC000546115054   -0.6200
     28 C28         1.2029    2.4624   53.0412 C.3     1  ZINC000546115054    0.0800
     29 C29         3.1971    3.9736   52.6191 C.3     1  ZINC000546115054    0.0700
     30 H30         1.4231   -3.2301   48.7336 H       1  ZINC000546115054    0.0700
     31 H31         2.1711   -1.7774   48.0278 H       1  ZINC000546115054    0.0600
     32 H32         1.8332   -1.8453   49.7740 H       1  ZINC000546115054    0.0600
     33 H33        -0.2619   -1.8450   47.5542 H       1  ZINC000546115054    0.0500
     34 H34        -0.5999   -1.9130   49.3005 H       1  ZINC000546115054    0.0500
     35 H35         0.1051    0.8794   46.1609 H       1  ZINC000546115054    0.0600
     36 H36        -0.8912   -0.5956   46.1870 H       1  ZINC000546115054    0.1000
     37 H37        -1.0049    3.0213   45.8720 H       1  ZINC000546115054    0.0600
     38 H38        -2.7762    3.0416   45.6963 H       1  ZINC000546115054    0.1000
     39 H39        -2.0528    3.8086   47.9604 H       1  ZINC000546115054    0.0900
     40 H40        -3.0368    2.3264   48.0425 H       1  ZINC000546115054    0.0800
     41 H41        -1.4675    1.3809   50.3792 H       1  ZINC000546115054    0.3900
     42 H42        -1.2988    2.6220   52.3492 H       1  ZINC000546115054    0.4000
     43 H43        -0.2939    3.8916   54.5497 H       1  ZINC000546115054    0.0900
     44 H44        -1.0130    5.5164   54.4434 H       1  ZINC000546115054    0.1100
     45 H45        -3.1994    5.1897   52.5876 H       1  ZINC000546115054    0.1200
     46 H46        -5.4509    4.2031   52.7319 H       1  ZINC000546115054    0.1200
     47 H47        -5.8939    2.3735   54.3191 H       1  ZINC000546115054    0.1200
     48 H48        -4.0853    1.5299   55.7614 H       1  ZINC000546115054    0.1200
     49 H49        -1.8326    2.5134   55.6139 H       1  ZINC000546115054    0.1200
     50 H50         1.0465    1.8858   52.1295 H       1  ZINC000546115054    0.0600
     51 H51         1.9046    1.9360   53.6883 H       1  ZINC000546115054    0.0700
     52 H52         0.2525    2.5861   53.5604 H       1  ZINC000546115054    0.0800
     53 H53         3.5781    4.2721   53.5957 H       1  ZINC000546115054    0.0600
     54 H54         3.6726    3.0418   52.3129 H       1  ZINC000546115054    0.0800
     55 H55         3.4194    4.7518   51.8891 H       1  ZINC000546115054    0.0700
@<TRIPOS>BOND
     1     1     2    1
     2     1    30    1
     3     1    31    1
     4     1    32    1
     5     2     3    1
     6     2    33    1
     7     2    34    1
     8     3     4    1
     9     4     5    1
    10     4    10    1
    11     4     6    1
    12     6     7    1
    13     6    35    1
    14     6    36    1
    15     7     8    1
    16     8     9    1
    17     8    37    1
    18     8    38    1
    19     9    10    1
    20     9    39    1
    21     9    40    1
    22    10    11    1
    23    10    12    1
    24    12    13   am
    25    12    41    1
    26    13    14    2
    27    13    15   am
    28    15    16    1
    29    15    42    1
    30    16    17    1
    31    16    18    1
    32    16    25    1
    33    18    19    1
    34    18    43    1
    35    18    44    1
    36    19    24   ar
    37    19    20   ar
    38    20    21   ar
    39    20    45    1
    40    21    22   ar
    41    21    46    1
    42    22    23   ar
    43    22    47    1
    44    23    24   ar
    45    23    48    1
    46    24    49    1
    47    25    26    2
    48    25    27   am
    49    27    28    1
    50    27    29    1
    51    28    50    1
    52    28    51    1
    53    28    52    1
    54    29    53    1
    55    29    54    1
    56    29    55    1
@<TRIPOS>SUBSTRUCTURE
     1 ZINC000546115054        1 TEMP              0 ****  ****    0 ROOT


##########                                Name:    ZINC000501032137
##########                DOCK_Rotatable_Bonds:                  10
##########                         Heavy_Atoms:                  25
##########                    Molecular_Weight:             407.307
##########                DOCK_Rotatable_Bonds:                  10
##########                       Formal_Charge:           0.0099998
##########                     HBond_Acceptors:                   5
##########                        HBond_Donors:                   1
##########                         Heavy_Atoms:                  25
##########                          Grid_Score:          -34.491940
##########                     Grid_vdw_energy:          -31.957523
##########                      Grid_es_energy:           -2.534416
##########           Internal_energy_repulsive:           10.683934

@<TRIPOS>MOLECULE
ZINC000501032137
 48 50 1 0 0
SMALL
USER_CHARGES


@<TRIPOS>ATOM
      1 C1          0.0683    5.4053   44.9837 C.3     1  ZINC000501032137   -0.1500
      2 C2          0.1523    6.0745   46.3571 C.3     1  ZINC000501032137   -0.1200
      3 C3         -0.9045    5.4707   47.2841 C.3     1  ZINC000501032137    0.0600
      4 O4         -0.5453    5.7228   48.6440 O.3     1  ZINC000501032137   -0.3800
      5 C5         -1.4356    5.1403   49.5979 C.3     1  ZINC000501032137    0.0500
      6 C6         -1.1905    3.6317   49.6694 C.3     1  ZINC000501032137    0.1600
      7 H7         -0.3227    3.3754   49.0617 H       1  ZINC000501032137    0.1000
      8 C8         -2.4200    2.8897   49.1414 C.3     1  ZINC000501032137   -0.0900
      9 C9         -1.9815    1.7952   48.2029 C.ar    1  ZINC000501032137   -0.0600
     10 C10        -2.2569    1.8921   46.8518 C.ar    1  ZINC000501032137   -0.0900
     11 C11        -1.8548    0.8881   45.9903 C.ar    1  ZINC000501032137   -0.1100
     12 C12        -1.1776   -0.2126   46.4796 C.ar    1  ZINC000501032137   -0.0900
     13 C13        -0.9019   -0.3099   47.8318 C.ar    1  ZINC000501032137   -0.0800
     14 Br14        0.0249   -1.8160   48.5021 Br      1  ZINC000501032137   -0.0600
     15 C15        -1.2991    0.6972   48.6925 C.ar    1  ZINC000501032137   -0.0800
     16 N16        -0.9450    3.2421   51.0601 N.am    1  ZINC000501032137   -0.7100
     17 C17         0.2371    3.5274   51.6412 C.2     1  ZINC000501032137    0.6100
     18 O18         1.0994    4.1095   51.0115 O.2     1  ZINC000501032137   -0.5200
     19 C19         0.4847    3.1338   53.0401 C.2     1  ZINC000501032137   -0.0800
     20 C20        -0.3961    3.2243   54.0736 C.2     1  ZINC000501032137    0.0800
     21 C21        -1.8084    3.7458   54.0053 C.3     1  ZINC000501032137   -0.0800
     22 C22        -2.9289    2.8133   54.4700 C.3     1  ZINC000501032137   -0.1700
     23 C23        -2.5272    4.0140   55.3291 C.3     1  ZINC000501032137   -0.1500
     24 O24         0.2324    2.7603   55.1654 O.3     1  ZINC000501032137   -0.2000
     25 C25         1.4720    2.3927   54.8112 C.2     1  ZINC000501032137    0.1800
     26 N26         1.6350    2.6062   53.5399 N.2     1  ZINC000501032137   -0.4600
     27 H27         0.2465    4.3352   45.0895 H       1  ZINC000501032137    0.0600
     28 H28        -0.9225    5.5686   44.5600 H       1  ZINC000501032137    0.0600
     29 H29         0.8213    5.8355   44.3233 H       1  ZINC000501032137    0.0600
     30 H30         1.1433    5.9112   46.7808 H       1  ZINC000501032137    0.0700
     31 H31        -0.0258    7.1446   46.2513 H       1  ZINC000501032137    0.0700
     32 H32        -1.8734    5.9238   47.0742 H       1  ZINC000501032137    0.0500
     33 H33        -0.9625    4.3951   47.1170 H       1  ZINC000501032137    0.0500
     34 H34        -1.2591    5.5838   50.5778 H       1  ZINC000501032137    0.0700
     35 H35        -2.4658    5.3271   49.2948 H       1  ZINC000501032137    0.0600
     36 H36        -2.9680    2.4540   49.9768 H       1  ZINC000501032137    0.0900
     37 H37        -3.0650    3.5884   48.6086 H       1  ZINC000501032137    0.0800
     38 H38        -2.7864    2.7520   46.4691 H       1  ZINC000501032137    0.1200
     39 H39        -2.0704    0.9641   44.9347 H       1  ZINC000501032137    0.1300
     40 H40        -0.8639   -0.9968   45.8066 H       1  ZINC000501032137    0.1300
     41 H41        -1.0838    0.6218   49.7481 H       1  ZINC000501032137    0.1200
     42 H42        -1.6333    2.7789   51.5627 H       1  ZINC000501032137    0.4100
     43 H43        -2.0228    4.4145   53.1717 H       1  ZINC000501032137    0.1500
     44 H44        -3.8809    2.8684   53.9418 H       1  ZINC000501032137    0.1100
     45 H45        -2.6447    1.8229   54.8251 H       1  ZINC000501032137    0.1000
     46 H46        -1.9786    3.8133   56.2493 H       1  ZINC000501032137    0.1000
     47 H47        -3.2149    4.8589   55.3662 H       1  ZINC000501032137    0.1100
     48 H48         2.2163    1.9809   55.4767 H       1  ZINC000501032137    0.2500
@<TRIPOS>BOND
     1     1     2    1
     2     1    27    1
     3     1    28    1
     4     1    29    1
     5     2     3    1
     6     2    30    1
     7     2    31    1
     8     3     4    1
     9     3    32    1
    10     3    33    1
    11     4     5    1
    12     5     6    1
    13     5    34    1
    14     5    35    1
    15     6     7    1
    16     6     8    1
    17     6    16    1
    18     8     9    1
    19     8    36    1
    20     8    37    1
    21     9    15   ar
    22     9    10   ar
    23    10    11   ar
    24    10    38    1
    25    11    12   ar
    26    11    39    1
    27    12    13   ar
    28    12    40    1
    29    13    14    1
    30    13    15   ar
    31    15    41    1
    32    16    17   am
    33    16    42    1
    34    17    18    2
    35    17    19    1
    36    19    26    1
    37    19    20    2
    38    20    21    1
    39    20    24    1
    40    21    23    1
    41    21    22    1
    42    21    43    1
    43    22    23    1
    44    22    44    1
    45    22    45    1
    46    23    46    1
    47    23    47    1
    48    24    25    1
    49    25    26    2
    50    25    48    1
@<TRIPOS>SUBSTRUCTURE
     1 ZINC000501032137        1 TEMP              0 ****  ****    0 ROOT


##########                                Name:    ZINC001000186632
##########                DOCK_Rotatable_Bonds:                   7
##########                         Heavy_Atoms:                  23
##########                    Molecular_Weight:             342.379
##########                DOCK_Rotatable_Bonds:                   7
##########                       Formal_Charge:          -0.0100001
##########                     HBond_Acceptors:                  11
##########                        HBond_Donors:                   2
##########                         Heavy_Atoms:                  23
##########                          Grid_Score:          -34.482643
##########                     Grid_vdw_energy:          -31.379894
##########                      Grid_es_energy:           -3.102747
##########           Internal_energy_repulsive:            4.824058

@<TRIPOS>MOLECULE
ZINC001000186632
 41 43 1 0 0
SMALL
USER_CHARGES


@<TRIPOS>ATOM
      1 O1         -5.0340    4.5683   52.7774 O.2     1  ZINC001000186632   -0.5200
      2 C2         -4.1988    3.8651   53.3056 C.2     1  ZINC001000186632    0.5300
      3 C3         -4.5321    3.1226   54.5740 C.3     1  ZINC001000186632   -0.0500
      4 C4         -3.2836    2.9565   55.4016 C.2     1  ZINC001000186632    0.2400
      5 N5         -2.5249    1.8924   55.4264 N.2     1  ZINC001000186632   -0.3000
      6 N6         -1.4777    2.1616   56.3228 N.pl3   1  ZINC001000186632   -0.4800
      7 C7         -1.6873    3.4056   56.7870 C.2     1  ZINC001000186632    0.2700
      8 N8         -2.7711    3.8725   56.2222 N.2     1  ZINC001000186632   -0.5400
      9 N9         -2.9746    3.7432   52.7553 N.am    1  ZINC001000186632   -0.7100
     10 C10        -2.6507    4.4650   51.5223 C.3     1  ZINC001000186632    0.1100
     11 C11        -1.1792    4.3266   51.0914 C.3     1  ZINC001000186632    0.1000
     12 N12        -1.6217    3.1522   50.3149 N.am    1  ZINC001000186632   -0.6500
     13 C13        -1.0150    2.0388   49.8579 C.2     1  ZINC001000186632    0.5100
     14 O14         0.1643    1.8578   50.0759 O.2     1  ZINC001000186632   -0.5100
     15 C15        -1.8019    1.0187   49.0761 C.3     1  ZINC001000186632    0.1500
     16 N16        -1.5504    1.2006   47.6443 N.am    1  ZINC001000186632   -0.9800
     17 C17        -2.2308    2.1539   46.7550 C.3     1  ZINC001000186632    0.0800
     18 C18        -1.2896    2.5747   45.6101 C.3     1  ZINC001000186632   -0.1300
     19 C19        -0.6543    1.2398   45.1246 C.3     1  ZINC001000186632   -0.6000
     20 S20        -0.4330    0.3686   46.7233 S.o2    1  ZINC001000186632    2.5700
     21 O21         0.8299    0.6673   47.3021 O.2     1  ZINC001000186632   -0.9400
     22 O22        -0.9311   -0.9607   46.6586 O.2     1  ZINC001000186632   -0.9600
     23 C23        -2.9953    3.6865   50.2396 C.3     1  ZINC001000186632    0.0900
     24 H24        -5.2719    3.6870   55.1418 H       1  ZINC001000186632    0.1300
     25 H25        -4.9363    2.1414   54.3251 H       1  ZINC001000186632    0.1200
     26 H26        -0.7484    1.5677   56.5600 H       1  ZINC001000186632    0.4400
     27 H27        -1.0671    3.9296   57.4994 H       1  ZINC001000186632    0.2200
     28 H28        -2.3080    3.1777   53.1757 H       1  ZINC001000186632    0.4100
     29 H29        -3.0146    5.4925   51.5231 H       1  ZINC001000186632    0.1200
     30 H30        -0.8224    5.1518   50.4750 H       1  ZINC001000186632    0.1000
     31 H31        -0.5027    4.0823   51.9103 H       1  ZINC001000186632    0.0900
     32 H32        -1.4948    0.0164   49.3745 H       1  ZINC001000186632    0.1100
     33 H33        -2.8653    1.1480   49.2774 H       1  ZINC001000186632    0.1100
     34 H34        -3.1215    1.6851   46.3365 H       1  ZINC001000186632    0.0800
     35 H35        -2.5222    3.0356   47.3257 H       1  ZINC001000186632    0.0900
     36 H36        -1.8551    3.0430   44.8045 H       1  ZINC001000186632    0.1100
     37 H37        -0.5190    3.2514   45.9794 H       1  ZINC001000186632    0.1000
     38 H38        -1.3335    0.6969   44.4673 H       1  ZINC001000186632    0.1400
     39 H39         0.3053    1.4147   44.6381 H       1  ZINC001000186632    0.1400
     40 H40        -3.7687    2.9312   50.3786 H       1  ZINC001000186632    0.0900
     41 H41        -3.1720    4.3237   49.3730 H       1  ZINC001000186632    0.1100
@<TRIPOS>BOND
     1     1     2    2
     2     2     3    1
     3     2     9   am
     4     3     4    1
     5     3    24    1
     6     3    25    1
     7     4     8    1
     8     4     5    2
     9     5     6    1
    10     6     7    1
    11     6    26    1
    12     7     8    2
    13     7    27    1
    14     9    10    1
    15     9    28    1
    16    10    23    1
    17    10    11    1
    18    10    29    1
    19    11    12    1
    20    11    30    1
    21    11    31    1
    22    12    13   am
    23    12    23    1
    24    13    14    2
    25    13    15    1
    26    15    16    1
    27    15    32    1
    28    15    33    1
    29    16    20   am
    30    16    17    1
    31    17    18    1
    32    17    34    1
    33    17    35    1
    34    18    19    1
    35    18    36    1
    36    18    37    1
    37    19    20    1
    38    19    38    1
    39    19    39    1
    40    20    21    2
    41    20    22    2
    42    23    40    1
    43    23    41    1
@<TRIPOS>SUBSTRUCTURE
     1 ZINC001000186632        1 TEMP              0 ****  ****    0 ROOT


##########                                Name:    ZINC001191196975
##########                DOCK_Rotatable_Bonds:                  14
##########                         Heavy_Atoms:                  24
##########                    Molecular_Weight:             339.438
##########                DOCK_Rotatable_Bonds:                  14
##########                       Formal_Charge:          0.00999969
##########                     HBond_Acceptors:                   8
##########                        HBond_Donors:                   4
##########                         Heavy_Atoms:                  24
##########                          Grid_Score:          -34.451214
##########                     Grid_vdw_energy:          -33.232174
##########                      Grid_es_energy:           -1.219040
##########           Internal_energy_repulsive:           13.831244

@<TRIPOS>MOLECULE
ZINC001191196975
 53 53 1 0 0
SMALL
USER_CHARGES


@<TRIPOS>ATOM
      1 C1          3.5148    0.7975   47.1793 C.2     1  ZINC001191196975   -0.1600
      2 C2          3.1873    0.2558   48.3261 C.2     1  ZINC001191196975   -0.1800
      3 C3          2.0147   -0.6876   48.4064 C.3     1  ZINC001191196975    0.1500
      4 N4          0.9570   -0.2302   47.5018 N.am    1  ZINC001191196975   -0.7300
      5 C5         -0.3247   -0.5752   47.7349 C.2     1  ZINC001191196975    0.5100
      6 O6         -0.6028   -1.2630   48.6943 O.2     1  ZINC001191196975   -0.5200
      7 C7         -1.4126   -0.1062   46.8033 C.3     1  ZINC001191196975    0.0300
      8 N8         -0.9046    0.9929   45.9714 N.3     1  ZINC001191196975   -0.5100
      9 C9         -1.0843    0.6987   44.5434 C.3     1  ZINC001191196975    0.0200
     10 C10        -1.5449    2.2651   46.3314 C.3     1  ZINC001191196975    0.0700
     11 H11        -2.5919    2.2725   46.0283 H       1  ZINC001191196975    0.0600
     12 C12        -0.7793    3.4665   45.7169 C.3     1  ZINC001191196975   -0.1200
     13 C13        -1.1109    4.6202   46.6868 C.3     1  ZINC001191196975    0.1000
     14 N14        -1.5010    4.0146   47.9684 N.am    1  ZINC001191196975   -0.6200
     15 C15        -1.8855    4.6880   49.0707 C.2     1  ZINC001191196975    0.5300
     16 O16        -1.9314    5.8998   49.0557 O.2     1  ZINC001191196975   -0.5400
     17 C17        -2.2583    3.9353   50.3218 C.3     1  ZINC001191196975   -0.1300
     18 C18        -2.1769    4.8754   51.5261 C.3     1  ZINC001191196975   -0.1000
     19 C19        -2.2421    4.0572   52.8172 C.3     1  ZINC001191196975   -0.1300
     20 C20        -3.6652    3.5321   53.0170 C.3     1  ZINC001191196975    0.1400
     21 N21        -3.7759    2.9122   54.3398 N.am    1  ZINC001191196975   -0.7500
     22 C22        -4.9199    3.0251   55.0433 C.2     1  ZINC001191196975    0.7000
     23 N23        -5.0222    2.4534   56.2595 N.am    1  ZINC001191196975   -0.8700
     24 O24        -5.8596    3.6427   54.5808 O.2     1  ZINC001191196975   -0.5900
     25 C25        -1.4039    2.5480   47.8479 C.3     1  ZINC001191196975    0.1100
     26 H26         2.9444    0.5681   46.2912 H       1  ZINC001191196975    0.1000
     27 H27         4.3523    1.4769   47.1226 H       1  ZINC001191196975    0.1000
     28 H28         3.7576    0.4850   49.2141 H       1  ZINC001191196975    0.1200
     29 H29         2.3334   -1.6887   48.1160 H       1  ZINC001191196975    0.0800
     30 H30         1.6351   -0.7091   49.4279 H       1  ZINC001191196975    0.0700
     31 H31         1.1793    0.3208   46.7352 H       1  ZINC001191196975    0.4000
     32 H32        -1.7242   -0.9319   46.1637 H       1  ZINC001191196975    0.0700
     33 H33        -2.2646    0.2434   47.3864 H       1  ZINC001191196975    0.1100
     34 H34        -2.1288    0.4531   44.3516 H       1  ZINC001191196975    0.0200
     35 H35        -0.8022    1.5713   43.9544 H       1  ZINC001191196975    0.0700
     36 H36        -0.4551   -0.1467   44.2646 H       1  ZINC001191196975    0.0900
     37 H37         0.2932    3.2727   45.7003 H       1  ZINC001191196975    0.0900
     38 H38        -1.1479    3.6870   44.7150 H       1  ZINC001191196975    0.0800
     39 H39        -0.2328    5.2507   46.8268 H       1  ZINC001191196975    0.0700
     40 H40        -1.9356    5.2124   46.2903 H       1  ZINC001191196975    0.0700
     41 H41        -3.2750    3.5537   50.2268 H       1  ZINC001191196975    0.0900
     42 H42        -1.5695    3.1026   50.4637 H       1  ZINC001191196975    0.0900
     43 H43        -1.2378    5.4277   51.4930 H       1  ZINC001191196975    0.0800
     44 H44        -3.0115    5.5759   51.4973 H       1  ZINC001191196975    0.0800
     45 H45        -1.5509    3.2170   52.7502 H       1  ZINC001191196975    0.0700
     46 H46        -1.9658    4.6884   53.6618 H       1  ZINC001191196975    0.0700
     47 H47        -4.3713    4.3591   52.9431 H       1  ZINC001191196975    0.0700
     48 H48        -3.8906    2.7921   52.2490 H       1  ZINC001191196975    0.0700
     49 H49        -3.0258    2.4205   54.7092 H       1  ZINC001191196975    0.4000
     50 H50        -5.8460    2.5337   56.7654 H       1  ZINC001191196975    0.4000
     51 H51        -4.2721    1.9618   56.6289 H       1  ZINC001191196975    0.4200
     52 H52        -2.2108    2.0676   48.4012 H       1  ZINC001191196975    0.0800
     53 H53        -0.4359    2.2010   48.2095 H       1  ZINC001191196975    0.0800
@<TRIPOS>BOND
     1     1     2    2
     2     1    26    1
     3     1    27    1
     4     2     3    1
     5     2    28    1
     6     3     4    1
     7     3    29    1
     8     3    30    1
     9     4     5   am
    10     4    31    1
    11     5     6    2
    12     5     7    1
    13     7     8    1
    14     7    32    1
    15     7    33    1
    16     8     9    1
    17     8    10    1
    18     9    34    1
    19     9    35    1
    20     9    36    1
    21    10    11    1
    22    10    25    1
    23    10    12    1
    24    12    13    1
    25    12    37    1
    26    12    38    1
    27    13    14    1
    28    13    39    1
    29    13    40    1
    30    14    15   am
    31    14    25    1
    32    15    16    2
    33    15    17    1
    34    17    18    1
    35    17    41    1
    36    17    42    1
    37    18    19    1
    38    18    43    1
    39    18    44    1
    40    19    20    1
    41    19    45    1
    42    19    46    1
    43    20    21    1
    44    20    47    1
    45    20    48    1
    46    21    22   am
    47    21    49    1
    48    22    23   am
    49    22    24    2
    50    23    50    1
    51    23    51    1
    52    25    52    1
    53    25    53    1
@<TRIPOS>SUBSTRUCTURE
     1 ZINC001191196975        1 TEMP              0 ****  ****    0 ROOT


##########                                Name:    ZINC001141221454
##########                DOCK_Rotatable_Bonds:                   7
##########                         Heavy_Atoms:                  27
##########                    Molecular_Weight:             369.439
##########                DOCK_Rotatable_Bonds:                   7
##########                       Formal_Charge:          0.00999935
##########                     HBond_Acceptors:                   6
##########                        HBond_Donors:                   1
##########                         Heavy_Atoms:                  27
##########                          Grid_Score:          -34.418346
##########                     Grid_vdw_energy:          -35.235306
##########                      Grid_es_energy:            0.816960
##########           Internal_energy_repulsive:           16.122938

@<TRIPOS>MOLECULE
ZINC001141221454
 51 54 1 0 0
SMALL
USER_CHARGES


@<TRIPOS>ATOM
      1 C1         -4.3000    2.0975   56.3820 C.3     1  ZINC001141221454    0.0300
      2 O2         -4.3236    2.5174   55.0162 O.3     1  ZINC001141221454   -0.3100
      3 C3         -3.1270    2.8040   54.4379 C.ar    1  ZINC001141221454    0.0900
      4 C4         -1.9463    2.4793   55.0874 C.ar    1  ZINC001141221454   -0.1800
      5 C5         -0.7308    2.7710   54.4973 C.ar    1  ZINC001141221454   -0.0900
      6 C6         -0.6909    3.3863   53.2602 C.ar    1  ZINC001141221454   -0.1200
      7 C7         -1.8665    3.7124   52.6089 C.ar    1  ZINC001141221454   -0.0800
      8 C8         -1.8192    4.3836   51.2605 C.3     1  ZINC001141221454    0.0900
      9 N9         -1.4602    3.3959   50.2342 N.3     1  ZINC001141221454   -0.5100
     10 C10        -2.6612    2.9489   49.4820 C.3     1  ZINC001141221454    0.0300
     11 C11        -2.0684    2.3789   48.1671 C.3     1  ZINC001141221454   -0.0700
     12 C12        -0.8952    3.3347   47.8822 C.3     1  ZINC001141221454   -0.1000
     13 C13        -0.8106    4.1117   46.5748 C.3     1  ZINC001141221454   -0.1400
     14 C14         0.1812    2.9812   46.8643 C.3     1  ZINC001141221454   -0.1800
     15 H15         1.2081    3.2603   47.1000 H       1  ZINC001141221454    0.1300
     16 C16         0.0170    1.6966   46.0937 C.2     1  ZINC001141221454    0.5500
     17 O17         0.5229    0.6739   46.5049 O.2     1  ZINC001141221454   -0.5300
     18 N18        -0.6920    1.6842   44.9476 N.am    1  ZINC001141221454   -0.7300
     19 C19        -0.8502    0.4359   44.1975 C.3     1  ZINC001141221454    0.1700
     20 C20         0.2187    0.3470   43.1389 C.ar    1  ZINC001141221454   -0.1600
     21 C21         1.4174    1.0261   43.2930 C.ar    1  ZINC001141221454   -0.0600
     22 C22         2.3722    0.9147   42.2935 C.ar    1  ZINC001141221454   -0.1700
     23 C23         2.0992    0.1363   41.1851 C.ar    1  ZINC001141221454    0.1100
     24 N24         0.9472   -0.4960   41.0719 N.ar    1  ZINC001141221454   -0.4800
     25 C25         0.0186   -0.4173   42.0047 C.ar    1  ZINC001141221454    0.1200
     26 C26        -0.5477    3.9846   49.2271 C.3     1  ZINC001141221454    0.0700
     27 C27        -3.0854    3.4177   53.1919 C.ar    1  ZINC001141221454    0.0900
     28 F28        -4.2341    3.7361   52.5560 F       1  ZINC001141221454   -0.1300
     29 H29        -5.3177    1.9014   56.7195 H       1  ZINC001141221454    0.1000
     30 H30        -3.7058    1.1881   56.4722 H       1  ZINC001141221454    0.0600
     31 H31        -3.8583    2.8824   56.9959 H       1  ZINC001141221454    0.0600
     32 H32        -1.9759    1.9988   56.0541 H       1  ZINC001141221454    0.1400
     33 H33         0.1889    2.5182   55.0038 H       1  ZINC001141221454    0.1300
     34 H34         0.2602    3.6130   52.8016 H       1  ZINC001141221454    0.1300
     35 H35        -2.7969    4.8072   51.0309 H       1  ZINC001141221454    0.0600
     36 H36        -1.0736    5.1785   51.2764 H       1  ZINC001141221454    0.0900
     37 H37        -3.1922    2.1723   50.0325 H       1  ZINC001141221454    0.0800
     38 H38        -3.3196    3.7920   49.2731 H       1  ZINC001141221454    0.0500
     39 H39        -1.7098    1.3602   48.3145 H       1  ZINC001141221454    0.0900
     40 H40        -2.8032    2.4185   47.3629 H       1  ZINC001141221454    0.0700
     41 H41        -1.5821    3.9257   45.8277 H       1  ZINC001141221454    0.1000
     42 H42        -0.4359    5.1343   46.6202 H       1  ZINC001141221454    0.1100
     43 H43        -1.0977    2.5020   44.6194 H       1  ZINC001141221454    0.4000
     44 H44        -0.7592   -0.4109   44.8777 H       1  ZINC001141221454    0.0800
     45 H45        -1.8321    0.4181   43.7246 H       1  ZINC001141221454    0.0800
     46 H46         1.6031    1.6278   44.1705 H       1  ZINC001141221454    0.1400
     47 H47         3.3173    1.4303   42.3803 H       1  ZINC001141221454    0.1400
     48 H48         2.8373    0.0447   40.4021 H       1  ZINC001141221454    0.1600
     49 H49        -0.9126   -0.9492   41.8769 H       1  ZINC001141221454    0.1600
     50 H50        -0.7000    5.0624   49.1709 H       1  ZINC001141221454    0.0500
     51 H51         0.4876    3.7672   49.4898 H       1  ZINC001141221454    0.0900
@<TRIPOS>BOND
     1     1     2    1
     2     1    29    1
     3     1    30    1
     4     1    31    1
     5     2     3    1
     6     3    27   ar
     7     3     4   ar
     8     4     5   ar
     9     4    32    1
    10     5     6   ar
    11     5    33    1
    12     6     7   ar
    13     6    34    1
    14     7     8    1
    15     7    27   ar
    16     8     9    1
    17     8    35    1
    18     8    36    1
    19     9    26    1
    20     9    10    1
    21    10    11    1
    22    10    37    1
    23    10    38    1
    24    11    12    1
    25    11    39    1
    26    11    40    1
    27    12    14    1
    28    12    13    1
    29    12    26    1
    30    13    14    1
    31    13    41    1
    32    13    42    1
    33    14    15    1
    34    14    16    1
    35    16    17    2
    36    16    18   am
    37    18    19    1
    38    18    43    1
    39    19    20    1
    40    19    44    1
    41    19    45    1
    42    20    25   ar
    43    20    21   ar
    44    21    22   ar
    45    21    46    1
    46    22    23   ar
    47    22    47    1
    48    23    24   ar
    49    23    48    1
    50    24    25   ar
    51    25    49    1
    52    26    50    1
    53    26    51    1
    54    27    28    1
@<TRIPOS>SUBSTRUCTURE
     1 ZINC001141221454        1 TEMP              0 ****  ****    0 ROOT


##########                                Name:    ZINC000807524472
##########                DOCK_Rotatable_Bonds:                   9
##########                         Heavy_Atoms:                  28
##########                    Molecular_Weight:             410.534
##########                DOCK_Rotatable_Bonds:                   9
##########                       Formal_Charge:           0.0200006
##########                     HBond_Acceptors:                   8
##########                        HBond_Donors:                   0
##########                         Heavy_Atoms:                  28
##########                          Grid_Score:          -34.367153
##########                     Grid_vdw_energy:          -34.090775
##########                      Grid_es_energy:           -0.276380
##########           Internal_energy_repulsive:           16.256742

@<TRIPOS>MOLECULE
ZINC000807524472
 58 60 1 0 0
SMALL
USER_CHARGES


@<TRIPOS>ATOM
      1 C1        -15.2767   -3.0989   60.2082 C.3     1  ZINC000807524472   -0.1500
      2 C2        -15.3627   -3.8239   58.8636 C.3     1  ZINC000807524472    0.0600
      3 O3        -14.0860   -4.3773   58.5383 O.3     1  ZINC000807524472   -0.3800
      4 C4        -14.0690   -5.1224   57.3190 C.3     1  ZINC000807524472    0.0600
      5 C5        -14.0653   -4.1575   56.1316 C.3     1  ZINC000807524472    0.0700
      6 O6        -12.8225   -3.4067   56.1220 O.3     1  ZINC000807524472   -0.3500
      7 C7        -12.8072   -2.2400   56.7964 C.2     1  ZINC000807524472    0.5000
      8 O8        -13.8289   -1.5924   56.9132 O.2     1  ZINC000807524472   -0.4600
      9 C9        -11.5524   -1.7499   57.3918 C.ar    1  ZINC000807524472   -0.1200
     10 C10       -11.1542   -2.1920   58.6564 C.ar    1  ZINC000807524472    0.0400
     11 C11        -9.9790   -1.7300   59.2073 C.ar    1  ZINC000807524472   -0.7000
     12 S12        -9.4793   -2.2897   60.8016 S.o2    1  ZINC000807524472    2.6900
     13 O13       -10.4707   -3.2123   61.2319 O.2     1  ZINC000807524472   -0.9500
     14 O14        -8.1017   -2.6219   60.6966 O.2     1  ZINC000807524472   -0.9500
     15 N15        -9.5707   -0.9928   61.8273 N.am    1  ZINC000807524472   -0.9900
     16 C16        -8.3746   -0.5078   62.5292 C.3     1  ZINC000807524472    0.1200
     17 C17        -8.2130    0.9900   62.2510 C.3     1  ZINC000807524472   -0.1400
     18 C18        -9.5041    1.7179   62.6324 C.3     1  ZINC000807524472   -0.1200
     19 C19       -10.6601    1.1902   61.7798 C.3     1  ZINC000807524472   -0.1400
     20 C20       -10.8484   -0.3016   62.0480 C.3     1  ZINC000807524472    0.1200
     21 C21        -9.1877   -0.8278   58.5143 C.ar    1  ZINC000807524472    0.0200
     22 C22        -9.5668   -0.3811   57.2649 C.ar    1  ZINC000807524472   -0.1800
     23 C23       -10.7453   -0.8396   56.6899 C.ar    1  ZINC000807524472    0.2000
     24 N24       -11.1288   -0.3921   55.4329 N.3     1  ZINC000807524472   -0.4800
     25 C25       -11.2964    1.0837   55.4215 C.3     1  ZINC000807524472    0.0400
     26 C26       -11.1914    1.4410   53.9176 C.3     1  ZINC000807524472   -0.1200
     27 C27       -10.1048    0.4674   53.4061 C.3     1  ZINC000807524472   -0.1300
     28 C28       -10.0877   -0.6874   54.4247 C.3     1  ZINC000807524472    0.0400
     29 H29       -14.5397   -2.2985   60.1429 H       1  ZINC000807524472    0.0600
     30 H30       -16.2505   -2.6769   60.4564 H       1  ZINC000807524472    0.0700
     31 H31       -14.9785   -3.8050   60.9833 H       1  ZINC000807524472    0.0700
     32 H32       -16.0996   -4.6244   58.9289 H       1  ZINC000807524472    0.0500
     33 H33       -15.6609   -3.1179   58.0886 H       1  ZINC000807524472    0.0500
     34 H34       -13.1739   -5.7435   57.2853 H       1  ZINC000807524472    0.0600
     35 H35       -14.9538   -5.7571   57.2687 H       1  ZINC000807524472    0.0700
     36 H36       -14.1555   -4.7227   55.2040 H       1  ZINC000807524472    0.0900
     37 H37       -14.9053   -3.4686   56.2207 H       1  ZINC000807524472    0.0800
     38 H38       -11.7671   -2.8948   59.2012 H       1  ZINC000807524472    0.1600
     39 H39        -8.4890   -0.6701   63.6010 H       1  ZINC000807524472    0.0800
     40 H40        -7.4966   -1.0434   62.1680 H       1  ZINC000807524472    0.0900
     41 H41        -7.3857    1.3826   62.8422 H       1  ZINC000807524472    0.0800
     42 H42        -8.0085    1.1431   61.1913 H       1  ZINC000807524472    0.0700
     43 H43        -9.7212    1.5438   63.6863 H       1  ZINC000807524472    0.0700
     44 H44        -9.3831    2.7871   62.4585 H       1  ZINC000807524472    0.0700
     45 H45       -11.5747    1.7252   62.0356 H       1  ZINC000807524472    0.0800
     46 H46       -10.4326    1.3414   60.7246 H       1  ZINC000807524472    0.0700
     47 H47       -11.6036   -0.7020   61.3718 H       1  ZINC000807524472    0.0900
     48 H48       -11.1638   -0.4502   63.0806 H       1  ZINC000807524472    0.0800
     49 H49        -8.2682   -0.4716   58.9551 H       1  ZINC000807524472    0.1500
     50 H50        -8.9445    0.3224   56.7318 H       1  ZINC000807524472    0.1400
     51 H51       -12.2735    1.3630   55.8160 H       1  ZINC000807524472    0.0900
     52 H52       -10.4996    1.5657   55.9880 H       1  ZINC000807524472    0.0500
     53 H53       -12.1397    1.2609   53.4112 H       1  ZINC000807524472    0.0800
     54 H54       -10.8741    2.4757   53.7881 H       1  ZINC000807524472    0.0800
     55 H55       -10.3666    0.0946   52.4159 H       1  ZINC000807524472    0.0800
     56 H56        -9.1345    0.9634   53.3801 H       1  ZINC000807524472    0.0700
     57 H57        -9.1110   -0.7442   54.9053 H       1  ZINC000807524472    0.0500
     58 H58       -10.3130   -1.6284   53.9229 H       1  ZINC000807524472    0.0900
@<TRIPOS>BOND
     1     1     2    1
     2     1    29    1
     3     1    30    1
     4     1    31    1
     5     2     3    1
     6     2    32    1
     7     2    33    1
     8     3     4    1
     9     4     5    1
    10     4    34    1
    11     4    35    1
    12     5     6    1
    13     5    36    1
    14     5    37    1
    15     6     7    1
    16     7     8    2
    17     7     9    1
    18     9    23   ar
    19     9    10   ar
    20    10    11   ar
    21    10    38    1
    22    11    12    1
    23    11    21   ar
    24    12    13    2
    25    12    14    2
    26    12    15   am
    27    15    20    1
    28    15    16    1
    29    16    17    1
    30    16    39    1
    31    16    40    1
    32    17    18    1
    33    17    41    1
    34    17    42    1
    35    18    19    1
    36    18    43    1
    37    18    44    1
    38    19    20    1
    39    19    45    1
    40    19    46    1
    41    20    47    1
    42    20    48    1
    43    21    22   ar
    44    21    49    1
    45    22    23   ar
    46    22    50    1
    47    23    24    1
    48    24    28    1
    49    24    25    1
    50    25    26    1
    51    25    51    1
    52    25    52    1
    53    26    27    1
    54    26    53    1
    55    26    54    1
    56    27    28    1
    57    27    55    1
    58    27    56    1
    59    28    57    1
    60    28    58    1
@<TRIPOS>SUBSTRUCTURE
     1 ZINC000807524472        1 TEMP              0 ****  ****    0 ROOT


##########                                Name:    ZINC000740930783
##########                DOCK_Rotatable_Bonds:                  11
##########                         Heavy_Atoms:                  27
##########                    Molecular_Weight:             413.257
##########                DOCK_Rotatable_Bonds:                  11
##########                       Formal_Charge:          -0.0100004
##########                     HBond_Acceptors:                   9
##########                        HBond_Donors:                   4
##########                         Heavy_Atoms:                  27
##########                          Grid_Score:          -34.337402
##########                     Grid_vdw_energy:          -33.374474
##########                      Grid_es_energy:           -0.962930
##########           Internal_energy_repulsive:           10.397868

@<TRIPOS>MOLECULE
ZINC000740930783
 45 46 1 0 0
SMALL
USER_CHARGES


@<TRIPOS>ATOM
      1 C1         -1.1892    4.5342   45.4198 C.3     1  ZINC000740930783    0.0200
      2 O2         -0.2759    3.6819   46.1137 O.3     1  ZINC000740930783   -0.3000
      3 C3         -0.8105    2.7723   46.9719 C.ar    1  ZINC000740930783    0.1200
      4 C4         -1.5241    3.1997   48.0746 C.ar    1  ZINC000740930783   -0.1400
      5 C5         -2.0729    2.2628   48.9545 C.ar    1  ZINC000740930783   -0.0800
      6 C6         -2.8366    2.7147   50.1341 C.2     1  ZINC000740930783    0.5600
      7 O7         -3.7790    2.0596   50.5356 O.2     1  ZINC000740930783   -0.5300
      8 N8         -2.4894    3.8534   50.7659 N.am    1  ZINC000740930783   -0.7200
      9 C9         -3.2485    4.3028   51.9356 C.3     1  ZINC000740930783    0.0900
     10 C10        -2.3319    5.1060   52.8606 C.3     1  ZINC000740930783    0.1400
     11 H11        -2.9013    5.4565   53.7214 H       1  ZINC000740930783    0.1200
     12 O12        -1.8032    6.2277   52.1505 O.3     1  ZINC000740930783   -0.5500
     13 C13        -1.1995    4.2297   53.3303 C.ar    1  ZINC000740930783   -0.1100
     14 C14        -0.0189    4.1826   52.6136 C.ar    1  ZINC000740930783   -0.1000
     15 C15         1.0202    3.3787   53.0445 C.ar    1  ZINC000740930783   -0.1100
     16 C16         0.8785    2.6212   54.1918 C.ar    1  ZINC000740930783   -0.1000
     17 C17        -0.3020    2.6672   54.9096 C.ar    1  ZINC000740930783   -0.1100
     18 C18        -1.3396    3.4762   54.4825 C.ar    1  ZINC000740930783   -0.0300
     19 Cl19       -2.8224    3.5348   55.3833 Cl      1  ZINC000740930783   -0.0600
     20 C20        -1.8975    0.8979   48.7153 C.ar    1  ZINC000740930783   -0.1000
     21 C21        -1.1839    0.4774   47.6123 C.ar    1  ZINC000740930783   -0.0200
     22 Cl22       -0.9673   -1.2193   47.3159 Cl      1  ZINC000740930783   -0.0300
     23 C23        -0.6432    1.4088   46.7353 C.ar    1  ZINC000740930783    0.0900
     24 O24         0.0587    0.9904   45.6504 O.3     1  ZINC000740930783   -0.2900
     25 C25        -0.6517    0.8982   44.4140 C.3     1  ZINC000740930783    0.0400
     26 C26         0.2757    0.3952   43.3379 C.2     1  ZINC000740930783    0.5200
     27 N27        -0.2145   -0.3191   42.3055 N.am    1  ZINC000740930783   -0.8500
     28 O28         1.4632    0.6332   43.4010 O.2     1  ZINC000740930783   -0.5100
     29 H29        -1.8670    3.9278   44.8189 H       1  ZINC000740930783    0.0600
     30 H30        -1.7641    5.1148   46.1413 H       1  ZINC000740930783    0.0600
     31 H31        -0.6333    5.2100   44.7699 H       1  ZINC000740930783    0.1100
     32 H32        -1.6574    4.2558   48.2568 H       1  ZINC000740930783    0.1600
     33 H33        -1.7369    4.3753   50.4463 H       1  ZINC000740930783    0.4100
     34 H34        -4.0779    4.9311   51.6109 H       1  ZINC000740930783    0.0900
     35 H35        -3.6368    3.4367   52.4714 H       1  ZINC000740930783    0.0800
     36 H36        -1.2815    5.9900   51.3718 H       1  ZINC000740930783    0.3800
     37 H37         0.0920    4.7738   51.7167 H       1  ZINC000740930783    0.1300
     38 H38         1.9427    3.3422   52.4840 H       1  ZINC000740930783    0.1300
     39 H39         1.6903    1.9927   54.5276 H       1  ZINC000740930783    0.1400
     40 H40        -0.4124    2.0753   55.8061 H       1  ZINC000740930783    0.1400
     41 H41        -2.3203    0.1718   49.3939 H       1  ZINC000740930783    0.1500
     42 H42        -1.4873    0.2072   44.5256 H       1  ZINC000740930783    0.0900
     43 H43        -1.0290    1.8828   44.1375 H       1  ZINC000740930783    0.0900
     44 H44         0.3822   -0.6420   41.6123 H       1  ZINC000740930783    0.4000
     45 H45        -1.1642   -0.5105   42.2558 H       1  ZINC000740930783    0.4100
@<TRIPOS>BOND
     1     1     2    1
     2     1    29    1
     3     1    30    1
     4     1    31    1
     5     2     3    1
     6     3    23   ar
     7     3     4   ar
     8     4     5   ar
     9     4    32    1
    10     5     6    1
    11     5    20   ar
    12     6     7    2
    13     6     8   am
    14     8     9    1
    15     8    33    1
    16     9    10    1
    17     9    34    1
    18     9    35    1
    19    10    11    1
    20    10    12    1
    21    10    13    1
    22    12    36    1
    23    13    18   ar
    24    13    14   ar
    25    14    15   ar
    26    14    37    1
    27    15    16   ar
    28    15    38    1
    29    16    17   ar
    30    16    39    1
    31    17    18   ar
    32    17    40    1
    33    18    19    1
    34    20    21   ar
    35    20    41    1
    36    21    22    1
    37    21    23   ar
    38    23    24    1
    39    24    25    1
    40    25    26    1
    41    25    42    1
    42    25    43    1
    43    26    27   am
    44    26    28    2
    45    27    44    1
    46    27    45    1
@<TRIPOS>SUBSTRUCTURE
     1 ZINC000740930783        1 TEMP              0 ****  ****    0 ROOT


##########                                Name:    ZINC000543625960
##########                DOCK_Rotatable_Bonds:                   8
##########                         Heavy_Atoms:                  29
##########                    Molecular_Weight:             416.544
##########                DOCK_Rotatable_Bonds:                   8
##########                       Formal_Charge:           -0.010001
##########                     HBond_Acceptors:                   8
##########                        HBond_Donors:                   2
##########                         Heavy_Atoms:                  29
##########                          Grid_Score:          -34.239571
##########                     Grid_vdw_energy:          -34.279003
##########                      Grid_es_energy:            0.039434
##########           Internal_energy_repulsive:           15.346270

@<TRIPOS>MOLECULE
ZINC000543625960
 57 59 1 0 0
SMALL
USER_CHARGES


@<TRIPOS>ATOM
      1 C1         -0.1934    3.7499   57.3743 C.3     1  ZINC000543625960   -0.1500
      2 C2          0.1038    4.7409   56.2472 C.3     1  ZINC000543625960   -0.1300
      3 C3         -0.7223    4.3724   55.0131 C.3     1  ZINC000543625960    0.1500
      4 H4         -1.7795    4.3495   55.2772 H       1  ZINC000543625960    0.0800
      5 C5         -0.2934    2.9944   54.5051 C.3     1  ZINC000543625960   -0.1700
      6 N6         -0.5029    5.3700   53.9629 N.am    1  ZINC000543625960   -1.1100
      7 S7         -1.7906    5.9842   53.1223 S.o2    1  ZINC000543625960    2.7000
      8 O8         -2.7074    6.4717   54.0924 O.2     1  ZINC000543625960   -0.9600
      9 O9         -1.2461    6.7958   52.0908 O.2     1  ZINC000543625960   -0.9500
     10 C10        -2.5853    4.6300   52.3228 C.ar    1  ZINC000543625960   -0.6600
     11 C11        -3.5437    3.8960   52.9969 C.ar    1  ZINC000543625960   -0.0400
     12 C12        -4.1697    2.8323   52.3730 C.ar    1  ZINC000543625960   -0.1200
     13 C13        -3.8392    2.5001   51.0740 C.ar    1  ZINC000543625960   -0.0600
     14 C14        -2.8772    3.2357   50.3939 C.ar    1  ZINC000543625960    0.1500
     15 N15        -2.5400    2.9016   49.0774 N.am    1  ZINC000543625960   -0.6800
     16 C16        -1.3558    2.3147   48.8134 C.2     1  ZINC000543625960    0.7200
     17 O17        -0.5806    2.0754   49.7190 O.2     1  ZINC000543625960   -0.5600
     18 N18        -1.0309    1.9929   47.5455 N.am    1  ZINC000543625960   -0.6300
     19 C19        -1.8727    2.2252   46.3576 C.3     1  ZINC000543625960    0.0900
     20 C20        -0.8775    2.2836   45.1719 C.3     1  ZINC000543625960   -0.1000
     21 H21        -1.3686    2.0162   44.2362 H       1  ZINC000543625960    0.1000
     22 C22        -0.2255    3.6640   45.0706 C.3     1  ZINC000543625960   -0.1500
     23 C23         0.1605    1.2061   45.5829 C.3     1  ZINC000543625960   -0.1200
     24 C24         0.2240    1.3580   47.1173 C.3     1  ZINC000543625960    0.2000
     25 H25         1.0740    1.9822   47.3931 H       1  ZINC000543625960    0.0900
     26 C26         0.3539    0.0019   47.7617 C.ar    1  ZINC000543625960   -0.1400
     27 C27         1.5115   -0.3443   48.4412 C.ar    1  ZINC000543625960   -0.0600
     28 C28         1.5863   -1.6028   49.0188 C.ar    1  ZINC000543625960   -0.1700
     29 C29         0.5123   -2.4638   48.8988 C.ar    1  ZINC000543625960    0.1000
     30 N30        -0.5738   -2.1004   48.2446 N.ar    1  ZINC000543625960   -0.4800
     31 C31        -0.6820   -0.9102   47.6875 C.ar    1  ZINC000543625960    0.1200
     32 C32        -2.2543    4.3062   51.0213 C.ar    1  ZINC000543625960   -0.0500
     33 H33         0.3952    4.0124   58.2534 H       1  ZINC000543625960    0.0600
     34 H34        -1.2541    3.7889   57.6222 H       1  ZINC000543625960    0.0600
     35 H35         0.0672    2.7422   57.0503 H       1  ZINC000543625960    0.0500
     36 H36        -0.1567    5.7485   56.5712 H       1  ZINC000543625960    0.0700
     37 H37         1.1645    4.7018   55.9992 H       1  ZINC000543625960    0.0800
     38 H38        -0.4567    2.2522   55.2866 H       1  ZINC000543625960    0.0700
     39 H39        -0.8820    2.7319   53.6261 H       1  ZINC000543625960    0.0700
     40 H40         0.7638    3.0173   54.2410 H       1  ZINC000543625960    0.0600
     41 H41         0.3968    5.6706   53.7598 H       1  ZINC000543625960    0.4200
     42 H42        -3.8037    4.1535   54.0130 H       1  ZINC000543625960    0.1400
     43 H43        -4.9176    2.2606   52.9023 H       1  ZINC000543625960    0.1400
     44 H44        -4.3279    1.6689   50.5874 H       1  ZINC000543625960    0.1400
     45 H45        -3.1584    3.0925   48.3550 H       1  ZINC000543625960    0.4100
     46 H46        -2.5748    1.4023   46.2234 H       1  ZINC000543625960    0.0700
     47 H47        -2.4077    3.1703   46.4507 H       1  ZINC000543625960    0.0800
     48 H48         0.2943    3.8895   46.0018 H       1  ZINC000543625960    0.0600
     49 H49         0.4874    3.6695   44.2460 H       1  ZINC000543625960    0.0600
     50 H50        -0.9936    4.4164   44.8918 H       1  ZINC000543625960    0.0600
     51 H51        -0.1858    0.2108   45.3044 H       1  ZINC000543625960    0.0800
     52 H52         1.1323    1.4165   45.1363 H       1  ZINC000543625960    0.0900
     53 H53         2.3356    0.3493   48.5186 H       1  ZINC000543625960    0.1300
     54 H54         2.4731   -1.9064   49.5554 H       1  ZINC000543625960    0.1400
     55 H55         0.5628   -3.4458   49.3454 H       1  ZINC000543625960    0.1600
     56 H56        -1.5872   -0.6482   47.1598 H       1  ZINC000543625960    0.1400
     57 H57        -1.5058    4.8803   50.4952 H       1  ZINC000543625960    0.1400
@<TRIPOS>BOND
     1     1     2    1
     2     1    33    1
     3     1    34    1
     4     1    35    1
     5     2     3    1
     6     2    36    1
     7     2    37    1
     8     3     4    1
     9     3     5    1
    10     3     6    1
    11     5    38    1
    12     5    39    1
    13     5    40    1
    14     6     7   am
    15     6    41    1
    16     7     8    2
    17     7     9    2
    18     7    10    1
    19    10    32   ar
    20    10    11   ar
    21    11    12   ar
    22    11    42    1
    23    12    13   ar
    24    12    43    1
    25    13    14   ar
    26    13    44    1
    27    14    15    1
    28    14    32   ar
    29    15    16   am
    30    15    45    1
    31    16    17    2
    32    16    18   am
    33    18    24    1
    34    18    19    1
    35    19    20    1
    36    19    46    1
    37    19    47    1
    38    20    21    1
    39    20    22    1
    40    20    23    1
    41    22    48    1
    42    22    49    1
    43    22    50    1
    44    23    24    1
    45    23    51    1
    46    23    52    1
    47    24    25    1
    48    24    26    1
    49    26    31   ar
    50    26    27   ar
    51    27    28   ar
    52    27    53    1
    53    28    29   ar
    54    28    54    1
    55    29    30   ar
    56    29    55    1
    57    30    31   ar
    58    31    56    1
    59    32    57    1
@<TRIPOS>SUBSTRUCTURE
     1 ZINC000543625960        1 TEMP              0 ****  ****    0 ROOT


##########                                Name:    ZINC000772422035
##########                DOCK_Rotatable_Bonds:                  10
##########                         Heavy_Atoms:                  25
##########                    Molecular_Weight:             348.399
##########                DOCK_Rotatable_Bonds:                  10
##########                       Formal_Charge:          0.00999987
##########                     HBond_Acceptors:                   7
##########                        HBond_Donors:                   0
##########                         Heavy_Atoms:                  25
##########                          Grid_Score:          -34.239422
##########                     Grid_vdw_energy:          -35.866093
##########                      Grid_es_energy:            1.626670
##########           Internal_energy_repulsive:           16.807674

@<TRIPOS>MOLECULE
ZINC000772422035
 49 50 1 0 0
SMALL
USER_CHARGES


@<TRIPOS>ATOM
      1 C1         -7.0618    2.2729   59.3719 C.3     1  ZINC000772422035    0.0300
      2 O2         -6.2586    2.6479   58.2510 O.3     1  ZINC000772422035   -0.3900
      3 C3         -6.7471    2.1645   56.9982 C.3     1  ZINC000772422035    0.0600
      4 C4         -5.8381    2.6590   55.8713 C.3     1  ZINC000772422035    0.0700
      5 O5         -4.5049    2.1970   56.0973 O.3     1  ZINC000772422035   -0.3000
      6 C6         -3.5631    2.5679   55.1939 C.ar    1  ZINC000772422035    0.3300
      7 C7         -3.9458    3.2244   54.0315 C.ar    1  ZINC000772422035   -0.1700
      8 C8         -2.9752    3.5975   53.1179 C.ar    1  ZINC000772422035   -0.0200
      9 C9         -3.3490    4.3119   51.8447 C.3     1  ZINC000772422035    0.1100
     10 O10        -2.4635    3.8889   50.7746 O.3     1  ZINC000772422035   -0.3500
     11 C11        -2.8496    2.8287   50.0473 C.2     1  ZINC000772422035    0.4700
     12 O12        -3.5736    1.9931   50.5348 O.2     1  ZINC000772422035   -0.5000
     13 C13        -2.3800    2.6807   48.6231 C.3     1  ZINC000772422035   -0.1100
     14 C14        -1.1650    1.7517   48.5807 C.3     1  ZINC000772422035    0.0000
     15 H15        -1.2277    1.0340   49.3987 H       1  ZINC000772422035    0.1000
     16 C16         0.1144    2.5783   48.7243 C.3     1  ZINC000772422035   -0.1500
     17 C17        -1.1420    1.0145   47.2664 C.2     1  ZINC000772422035   -0.2000
     18 C18        -0.9218   -0.3049   47.0540 C.2     1  ZINC000772422035   -0.0200
     19 C19        -0.6445   -1.3533   48.1004 C.3     1  ZINC000772422035   -0.0800
     20 O20        -0.9992   -0.4941   45.7292 O.3     1  ZINC000772422035    0.1000
     21 N21        -1.2346    0.5385   45.1457 N.2     1  ZINC000772422035   -0.3600
     22 C22        -1.3513    1.5391   45.9704 C.2     1  ZINC000772422035    0.0300
     23 C23        -1.6420    2.9740   45.6133 C.3     1  ZINC000772422035   -0.0800
     24 C24        -1.6498    3.2991   53.4014 C.ar    1  ZINC000772422035   -0.1900
     25 C25        -1.3414    2.6439   54.5772 C.ar    1  ZINC000772422035    0.1400
     26 N26        -2.2884    2.3058   55.4313 N.ar    1  ZINC000772422035   -0.5300
     27 H27        -6.6243    2.6780   60.2844 H       1  ZINC000772422035    0.0900
     28 H28        -8.0695    2.6684   59.2454 H       1  ZINC000772422035    0.0400
     29 H29        -7.1042    1.1858   59.4410 H       1  ZINC000772422035    0.0400
     30 H30        -6.7546    1.0746   57.0072 H       1  ZINC000772422035    0.0600
     31 H31        -7.7600    2.5334   56.8364 H       1  ZINC000772422035    0.0700
     32 H32        -6.1993    2.2739   54.9177 H       1  ZINC000772422035    0.0800
     33 H33        -5.8464    3.7488   55.8496 H       1  ZINC000772422035    0.0800
     34 H34        -4.9870    3.4405   53.8426 H       1  ZINC000772422035    0.1400
     35 H35        -4.3786    4.0700   51.5813 H       1  ZINC000772422035    0.0900
     36 H36        -3.2544    5.3879   51.9906 H       1  ZINC000772422035    0.0900
     37 H37        -3.1821    2.2578   48.0181 H       1  ZINC000772422035    0.1100
     38 H38        -2.1038    3.6583   48.2281 H       1  ZINC000772422035    0.1100
     39 H39         0.1154    3.3779   47.9835 H       1  ZINC000772422035    0.0600
     40 H40         0.1579    3.0097   49.7244 H       1  ZINC000772422035    0.0800
     41 H41         0.9812    1.9364   48.5674 H       1  ZINC000772422035    0.0600
     42 H42        -1.5875   -1.7222   48.5039 H       1  ZINC000772422035    0.0900
     43 H43        -0.0940   -2.1793   47.6502 H       1  ZINC000772422035    0.0900
     44 H44        -0.0514   -0.9166   48.9040 H       1  ZINC000772422035    0.0900
     45 H45        -2.7143    3.1561   45.6847 H       1  ZINC000772422035    0.0800
     46 H46        -1.1147    3.6339   46.3021 H       1  ZINC000772422035    0.0800
     47 H47        -1.3073    3.1700   44.5945 H       1  ZINC000772422035    0.0800
     48 H48        -0.8679    3.5759   52.7096 H       1  ZINC000772422035    0.1400
     49 H49        -0.3115    2.4094   54.8026 H       1  ZINC000772422035    0.1700
@<TRIPOS>BOND
     1     1     2    1
     2     1    27    1
     3     1    28    1
     4     1    29    1
     5     2     3    1
     6     3     4    1
     7     3    30    1
     8     3    31    1
     9     4     5    1
    10     4    32    1
    11     4    33    1
    12     5     6    1
    13     6    26   ar
    14     6     7   ar
    15     7     8   ar
    16     7    34    1
    17     8     9    1
    18     8    24   ar
    19     9    10    1
    20     9    35    1
    21     9    36    1
    22    10    11    1
    23    11    12    2
    24    11    13    1
    25    13    14    1
    26    13    37    1
    27    13    38    1
    28    14    15    1
    29    14    16    1
    30    14    17    1
    31    16    39    1
    32    16    40    1
    33    16    41    1
    34    17    22    1
    35    17    18    2
    36    18    19    1
    37    18    20    1
    38    19    42    1
    39    19    43    1
    40    19    44    1
    41    20    21    1
    42    21    22    2
    43    22    23    1
    44    23    45    1
    45    23    46    1
    46    23    47    1
    47    24    25   ar
    48    24    48    1
    49    25    26   ar
    50    25    49    1
@<TRIPOS>SUBSTRUCTURE
     1 ZINC000772422035        1 TEMP              0 ****  ****    0 ROOT


##########                                Name:    ZINC000508571532
##########                DOCK_Rotatable_Bonds:                   9
##########                         Heavy_Atoms:                  30
##########                    Molecular_Weight:             422.407
##########                DOCK_Rotatable_Bonds:                   9
##########                       Formal_Charge:           0.0100001
##########                     HBond_Acceptors:                  10
##########                        HBond_Donors:                   0
##########                         Heavy_Atoms:                  30
##########                          Grid_Score:          -34.220203
##########                     Grid_vdw_energy:          -34.926205
##########                      Grid_es_energy:            0.706001
##########           Internal_energy_repulsive:           27.891882

@<TRIPOS>MOLECULE
ZINC000508571532
 51 53 1 0 0
SMALL
USER_CHARGES


@<TRIPOS>ATOM
      1 C1          2.1006    2.5748   54.7050 C.3     1  ZINC000508571532    0.0300
      2 O2          0.7992    2.2941   55.2240 O.3     1  ZINC000508571532   -0.3200
      3 C3         -0.2629    2.7482   54.5065 C.ar    1  ZINC000508571532    0.0900
      4 C4         -0.0552    3.4343   53.3192 C.ar    1  ZINC000508571532   -0.1700
      5 C5         -1.1340    3.8957   52.5902 C.ar    1  ZINC000508571532   -0.1100
      6 C6         -2.4250    3.6722   53.0454 C.ar    1  ZINC000508571532    0.0900
      7 O7         -3.4870    4.1268   52.3280 O.3     1  ZINC000508571532   -0.3100
      8 C8         -3.2245    4.5850   51.0001 C.3     1  ZINC000508571532    0.1500
      9 C9         -2.8524    3.4132   50.1287 C.2     1  ZINC000508571532    0.1700
     10 N10        -3.3703    2.2186   50.1783 N.2     1  ZINC000508571532   -0.2500
     11 N11        -2.8222    1.4636   49.2944 N.2     1  ZINC000508571532   -0.3000
     12 C12        -1.9178    2.1414   48.6279 C.2     1  ZINC000508571532    0.3500
     13 N13        -1.1221    1.6630   47.5990 N.3     1  ZINC000508571532   -0.4600
     14 C14        -0.9571    0.2065   47.6948 C.3     1  ZINC000508571532    0.0300
     15 C15        -1.6677    2.0461   46.2900 C.3     1  ZINC000508571532    0.1100
     16 C16        -0.7582    1.5412   45.1995 C.ar    1  ZINC000508571532   -0.0900
     17 C17        -1.1220    0.4386   44.4514 C.ar    1  ZINC000508571532   -0.0600
     18 C18        -0.2877   -0.0255   43.4510 C.ar    1  ZINC000508571532   -0.1300
     19 C19         0.9118    0.6128   43.1966 C.ar    1  ZINC000508571532   -0.0700
     20 C20         1.2801    1.7164   43.9418 C.ar    1  ZINC000508571532   -0.1900
     21 C21         0.4426    2.1871   44.9424 C.ar    1  ZINC000508571532    0.1100
     22 O22         0.8026    3.2724   45.6767 O.3     1  ZINC000508571532   -0.3100
     23 C23         0.7324    4.5451   45.0307 C.3     1  ZINC000508571532    0.6000
     24 F24         1.2378    5.5306   45.8855 F       1  ZINC000508571532   -0.1600
     25 F25         1.4905    4.5139   43.8553 F       1  ZINC000508571532   -0.1300
     26 F26        -0.5998    4.8369   44.7188 F       1  ZINC000508571532   -0.1600
     27 N27        -1.9128    3.4082   49.1352 N.pl3   1  ZINC000508571532   -0.4500
     28 C28        -1.0689    4.5278   48.7104 C.3     1  ZINC000508571532    0.0800
     29 C29        -2.6327    2.9848   54.2319 C.ar    1  ZINC000508571532   -0.1700
     30 C30        -1.5540    2.5202   54.9590 C.ar    1  ZINC000508571532   -0.1100
     31 H31         2.8555    2.1583   55.3719 H       1  ZINC000508571532    0.1000
     32 H32         2.2020    2.1268   53.7165 H       1  ZINC000508571532    0.0600
     33 H33         2.2371    3.6538   54.6307 H       1  ZINC000508571532    0.0600
     34 H34         0.9501    3.6083   52.9648 H       1  ZINC000508571532    0.1400
     35 H35        -0.9722    4.4306   51.6661 H       1  ZINC000508571532    0.1300
     36 H36        -4.1161    5.0672   50.5993 H       1  ZINC000508571532    0.0800
     37 H37        -2.4019    5.2998   51.0184 H       1  ZINC000508571532    0.1000
     38 H38        -1.9099   -0.2814   47.4894 H       1  ZINC000508571532    0.0600
     39 H39        -0.2154   -0.1238   46.9676 H       1  ZINC000508571532    0.0800
     40 H40        -0.6236   -0.0561   48.6987 H       1  ZINC000508571532    0.0700
     41 H41        -2.6589    1.6094   46.1676 H       1  ZINC000508571532    0.0700
     42 H42        -1.7390    3.1320   46.2298 H       1  ZINC000508571532    0.0900
     43 H43        -2.0587   -0.0618   44.6483 H       1  ZINC000508571532    0.1400
     44 H44        -0.5736   -0.8882   42.8676 H       1  ZINC000508571532    0.1300
     45 H45         1.5618    0.2483   42.4149 H       1  ZINC000508571532    0.1400
     46 H46         2.2175    2.2145   43.7429 H       1  ZINC000508571532    0.1400
     47 H47        -1.6103    5.1365   47.9862 H       1  ZINC000508571532    0.0900
     48 H48        -0.8106    5.1372   49.5765 H       1  ZINC000508571532    0.0900
     49 H49        -0.1578    4.1427   48.2524 H       1  ZINC000508571532    0.1000
     50 H50        -3.6380    2.8106   54.5862 H       1  ZINC000508571532    0.1400
     51 H51        -1.7158    1.9850   55.8829 H       1  ZINC000508571532    0.1400
@<TRIPOS>BOND
     1     1     2    1
     2     1    31    1
     3     1    32    1
     4     1    33    1
     5     2     3    1
     6     3    30   ar
     7     3     4   ar
     8     4     5   ar
     9     4    34    1
    10     5     6   ar
    11     5    35    1
    12     6     7    1
    13     6    29   ar
    14     7     8    1
    15     8     9    1
    16     8    36    1
    17     8    37    1
    18     9    27    1
    19     9    10    2
    20    10    11    1
    21    11    12    2
    22    12    13    1
    23    12    27    1
    24    13    14    1
    25    13    15    1
    26    14    38    1
    27    14    39    1
    28    14    40    1
    29    15    16    1
    30    15    41    1
    31    15    42    1
    32    16    21   ar
    33    16    17   ar
    34    17    18   ar
    35    17    43    1
    36    18    19   ar
    37    18    44    1
    38    19    20   ar
    39    19    45    1
    40    20    21   ar
    41    20    46    1
    42    21    22    1
    43    22    23    1
    44    23    24    1
    45    23    25    1
    46    23    26    1
    47    27    28    1
    48    28    47    1
    49    28    48    1
    50    28    49    1
    51    29    30   ar
    52    29    50    1
    53    30    51    1
@<TRIPOS>SUBSTRUCTURE
     1 ZINC000508571532        1 TEMP              0 ****  ****    0 ROOT


##########                                Name:    ZINC001342153661
##########                DOCK_Rotatable_Bonds:                   8
##########                         Heavy_Atoms:                  29
##########                    Molecular_Weight:             395.548
##########                DOCK_Rotatable_Bonds:                   8
##########                       Formal_Charge:          -0.0400005
##########                     HBond_Acceptors:                   6
##########                        HBond_Donors:                   1
##########                         Heavy_Atoms:                  29
##########                          Grid_Score:          -34.145931
##########                     Grid_vdw_energy:          -30.461184
##########                      Grid_es_energy:           -3.684748
##########           Internal_energy_repulsive:           16.904478

@<TRIPOS>MOLECULE
ZINC001342153661
 62 65 1 0 0
SMALL
USER_CHARGES


@<TRIPOS>ATOM
      1 C1         -1.5428    3.2690   56.7162 C.2     1  ZINC001342153661   -0.1400
      2 C2         -1.5089    3.7598   55.5021 C.2     1  ZINC001342153661   -0.1600
      3 C3         -1.0006    5.1592   55.2690 C.3     1  ZINC001342153661   -0.1200
      4 C4         -1.9784    2.9250   54.3386 C.3     1  ZINC001342153661    0.1500
      5 N5         -3.1253    3.5766   53.7013 N.pl3   1  ZINC001342153661   -0.4700
      6 C6         -4.3660    3.7762   54.2405 C.2     1  ZINC001342153661    0.1800
      7 C7         -4.8183    3.3634   55.6175 C.3     1  ZINC001342153661   -0.0600
      8 C8         -6.3318    3.1397   55.6115 C.3     1  ZINC001342153661    0.1600
      9 H9         -6.8411    4.1020   55.5576 H       1  ZINC001342153661    0.1000
     10 O10        -6.6916    2.3464   54.4786 O.3     1  ZINC001342153661   -0.5400
     11 C11        -6.7392    2.4257   56.8745 C.ar    1  ZINC001342153661   -0.1700
     12 C12        -6.2448    2.8355   58.1030 C.ar    1  ZINC001342153661   -0.0600
     13 C13        -6.6474    2.1491   59.2388 C.ar    1  ZINC001342153661   -0.1700
     14 C14        -7.5218    1.0870   59.1090 C.ar    1  ZINC001342153661    0.1000
     15 N15        -7.9720    0.7248   57.9235 N.ar    1  ZINC001342153661   -0.4800
     16 C16        -7.6149    1.3575   56.8233 C.ar    1  ZINC001342153661    0.1100
     17 N17        -5.0843    4.3899   53.3433 N.2     1  ZINC001342153661   -0.2700
     18 N18        -4.3873    4.5902   52.2822 N.2     1  ZINC001342153661   -0.3200
     19 C19        -3.1754    4.1155   52.4487 C.2     1  ZINC001342153661    0.3600
     20 N20        -2.1438    4.1476   51.5240 N.3     1  ZINC001342153661   -0.4500
     21 C21        -1.7876    5.5303   51.1807 C.3     1  ZINC001342153661    0.0500
     22 C22        -0.5551    5.5307   50.2735 C.3     1  ZINC001342153661   -0.1200
     23 C23        -0.8620    4.7326   49.0033 C.3     1  ZINC001342153661   -0.1200
     24 C24        -1.2769    3.3106   49.3913 C.3     1  ZINC001342153661   -0.0800
     25 H25        -0.4502    2.8168   49.9019 H       1  ZINC001342153661    0.0800
     26 C26        -1.6422    2.5235   48.1312 C.3     1  ZINC001342153661   -0.0800
     27 C27        -0.4651    2.5350   47.1246 C.3     1  ZINC001342153661   -0.1200
     28 C28        -0.7346    1.2722   46.2690 C.3     1  ZINC001342153661   -0.1300
     29 C29        -1.2624    0.2348   47.2816 C.3     1  ZINC001342153661   -0.1300
     30 C30        -1.8395    1.0305   48.4656 C.3     1  ZINC001342153661   -0.1200
     31 C31        -2.4885    3.3746   50.3240 C.3     1  ZINC001342153661    0.0800
     32 H32        -1.2064    3.8672   57.5501 H       1  ZINC001342153661    0.1000
     33 H33        -1.9112    2.2677   56.8838 H       1  ZINC001342153661    0.1100
     34 H34         0.0851    5.1404   55.1747 H       1  ZINC001342153661    0.0700
     35 H35        -1.4380    5.5568   54.3533 H       1  ZINC001342153661    0.0600
     36 H36        -1.2813    5.7927   56.1105 H       1  ZINC001342153661    0.0700
     37 H37        -1.1698    2.8234   53.6147 H       1  ZINC001342153661    0.1000
     38 H38        -2.2731    1.9381   54.6950 H       1  ZINC001342153661    0.1000
     39 H39        -4.3156    2.4394   55.9033 H       1  ZINC001342153661    0.1100
     40 H40        -4.5698    4.1481   56.3321 H       1  ZINC001342153661    0.1000
     41 H41        -6.4136    1.4224   54.5413 H       1  ZINC001342153661    0.3800
     42 H42        -5.5620    3.6693   58.1741 H       1  ZINC001342153661    0.1300
     43 H43        -6.2819    2.4408   60.2123 H       1  ZINC001342153661    0.1400
     44 H44        -7.8399    0.5471   59.9887 H       1  ZINC001342153661    0.1600
     45 H45        -8.0044    1.0319   55.8699 H       1  ZINC001342153661    0.1500
     46 H46        -2.6215    6.0017   50.6605 H       1  ZINC001342153661    0.0500
     47 H47        -1.5677    6.0857   52.0925 H       1  ZINC001342153661    0.0700
     48 H48        -0.3004    6.5563   50.0062 H       1  ZINC001342153661    0.0800
     49 H49         0.2830    5.0719   50.7981 H       1  ZINC001342153661    0.0700
     50 H50        -1.6745    5.2132   48.4585 H       1  ZINC001342153661    0.0600
     51 H51         0.0271    4.6937   48.3739 H       1  ZINC001342153661    0.0700
     52 H52        -2.5422    2.9341   47.6735 H       1  ZINC001342153661    0.0800
     53 H53        -0.4934    3.4329   46.5073 H       1  ZINC001342153661    0.0700
     54 H54         0.4891    2.4525   47.6449 H       1  ZINC001342153661    0.0700
     55 H55        -1.4873    1.4801   45.5085 H       1  ZINC001342153661    0.0600
     56 H56         0.1880    0.9198   45.8078 H       1  ZINC001342153661    0.0600
     57 H57        -2.0438   -0.3709   46.8226 H       1  ZINC001342153661    0.0600
     58 H58        -0.4467   -0.4028   47.6223 H       1  ZINC001342153661    0.0600
     59 H59        -1.3038    0.7789   49.3810 H       1  ZINC001342153661    0.0600
     60 H60        -2.9008    0.8108   48.5812 H       1  ZINC001342153661    0.0600
     61 H61        -2.7776    2.3643   50.6135 H       1  ZINC001342153661    0.0900
     62 H62        -3.3191    3.8561   49.8079 H       1  ZINC001342153661    0.0500
@<TRIPOS>BOND
     1     1     2    2
     2     1    32    1
     3     1    33    1
     4     2     3    1
     5     2     4    1
     6     3    34    1
     7     3    35    1
     8     3    36    1
     9     4     5    1
    10     4    37    1
    11     4    38    1
    12     5    19    1
    13     5     6    1
    14     6     7    1
    15     6    17    2
    16     7     8    1
    17     7    39    1
    18     7    40    1
    19     8     9    1
    20     8    10    1
    21     8    11    1
    22    10    41    1
    23    11    16   ar
    24    11    12   ar
    25    12    13   ar
    26    12    42    1
    27    13    14   ar
    28    13    43    1
    29    14    15   ar
    30    14    44    1
    31    15    16   ar
    32    16    45    1
    33    17    18    1
    34    18    19    2
    35    19    20    1
    36    20    31    1
    37    20    21    1
    38    21    22    1
    39    21    46    1
    40    21    47    1
    41    22    23    1
    42    22    48    1
    43    22    49    1
    44    23    24    1
    45    23    50    1
    46    23    51    1
    47    24    25    1
    48    24    26    1
    49    24    31    1
    50    26    30    1
    51    26    27    1
    52    26    52    1
    53    27    28    1
    54    27    53    1
    55    27    54    1
    56    28    29    1
    57    28    55    1
    58    28    56    1
    59    29    30    1
    60    29    57    1
    61    29    58    1
    62    30    59    1
    63    30    60    1
    64    31    61    1
    65    31    62    1
@<TRIPOS>SUBSTRUCTURE
     1 ZINC001342153661        1 TEMP              0 ****  ****    0 ROOT


##########                                Name:    ZINC000816269301
##########                DOCK_Rotatable_Bonds:                   7
##########                         Heavy_Atoms:                  25
##########                    Molecular_Weight:             358.784
##########                DOCK_Rotatable_Bonds:                   7
##########                       Formal_Charge:           0.0100002
##########                     HBond_Acceptors:                   8
##########                        HBond_Donors:                   1
##########                         Heavy_Atoms:                  25
##########                          Grid_Score:          -34.125820
##########                     Grid_vdw_energy:          -33.437668
##########                      Grid_es_energy:           -0.688152
##########           Internal_energy_repulsive:            6.786556

@<TRIPOS>MOLECULE
ZINC000816269301
 40 42 1 0 0
SMALL
USER_CHARGES


@<TRIPOS>ATOM
      1 C1         -0.5661    0.7890   44.4976 C.3     1  ZINC000816269301    0.1000
      2 N2         -1.0705    0.6259   45.8634 N.pl3   1  ZINC000816269301   -0.4000
      3 N3         -1.3439   -0.5848   46.5158 N.2     1  ZINC000816269301    0.0000
      4 N4         -1.7722   -0.3452   47.7049 N.2     1  ZINC000816269301   -0.2000
      5 C5         -1.8145    0.9906   47.9246 C.ar    1  ZINC000816269301   -0.0300
      6 C6         -2.1946    1.7648   49.0240 C.ar    1  ZINC000816269301    0.0500
      7 C7         -2.1255    3.1506   48.9434 C.ar    1  ZINC000816269301   -0.1400
      8 C8         -2.5249    3.9750   50.1005 C.2     1  ZINC000816269301    0.5200
      9 O9         -2.2787    5.1646   50.1126 O.2     1  ZINC000816269301   -0.5000
     10 O10        -3.1626    3.4085   51.1434 O.3     1  ZINC000816269301   -0.3500
     11 C11        -3.6970    4.3032   52.1543 C.3     1  ZINC000816269301    0.0500
     12 C12        -4.0930    3.4958   53.3921 C.3     1  ZINC000816269301    0.1200
     13 N13        -5.1843    2.5805   53.0495 N.am    1  ZINC000816269301   -0.7200
     14 C14        -6.4534    2.8909   53.3807 C.2     1  ZINC000816269301    0.5600
     15 O15        -6.6925    3.9312   53.9624 O.2     1  ZINC000816269301   -0.5300
     16 C16        -7.5540    1.9667   53.0366 C.ar    1  ZINC000816269301   -0.1300
     17 C17        -7.2897    0.7983   52.3196 C.ar    1  ZINC000816269301   -0.0700
     18 C18        -8.3209   -0.0602   52.0014 C.ar    1  ZINC000816269301   -0.1200
     19 C19        -9.6168    0.2348   52.3918 C.ar    1  ZINC000816269301   -0.0100
     20 Cl20      -10.9097   -0.8511   51.9881 Cl      1  ZINC000816269301   -0.0600
     21 C21        -9.8851    1.3925   53.1034 C.ar    1  ZINC000816269301   -0.1200
     22 C22        -8.8614    2.2558   53.4323 C.ar    1  ZINC000816269301   -0.0500
     23 C23        -1.6772    3.7686   47.7667 C.ar    1  ZINC000816269301   -0.0200
     24 C24        -1.3052    3.0187   46.6913 C.ar    1  ZINC000816269301   -0.1300
     25 C25        -1.3616    1.6284   46.7545 C.ar    1  ZINC000816269301    0.1100
     26 H26         0.5238    0.7962   44.5112 H       1  ZINC000816269301    0.0900
     27 H27        -0.9162   -0.0380   43.8798 H       1  ZINC000816269301    0.1000
     28 H28        -0.9307    1.7300   44.0856 H       1  ZINC000816269301    0.1000
     29 H29        -2.5401    1.2896   49.9303 H       1  ZINC000816269301    0.1600
     30 H30        -2.9391    5.0377   52.4268 H       1  ZINC000816269301    0.0800
     31 H31        -4.5740    4.8157   51.7589 H       1  ZINC000816269301    0.1000
     32 H32        -3.2344    2.9226   53.7421 H       1  ZINC000816269301    0.1000
     33 H33        -4.4217    4.1747   54.1789 H       1  ZINC000816269301    0.0900
     34 H34        -4.9936    1.7509   52.5842 H       1  ZINC000816269301    0.4000
     35 H35        -6.2798    0.5675   52.0144 H       1  ZINC000816269301    0.1400
     36 H36        -8.1178   -0.9642   51.4465 H       1  ZINC000816269301    0.1400
     37 H37       -10.8975    1.6172   53.4050 H       1  ZINC000816269301    0.1400
     38 H38        -9.0717    3.1580   53.9875 H       1  ZINC000816269301    0.1500
     39 H39        -1.6270    4.8461   47.7124 H       1  ZINC000816269301    0.1500
     40 H40        -0.9613    3.5036   45.7895 H       1  ZINC000816269301    0.1400
@<TRIPOS>BOND
     1     1     2    1
     2     1    26    1
     3     1    27    1
     4     1    28    1
     5     2    25    1
     6     2     3    1
     7     3     4    2
     8     4     5    1
     9     5    25   ar
    10     5     6   ar
    11     6     7   ar
    12     6    29    1
    13     7     8    1
    14     7    23   ar
    15     8     9    2
    16     8    10    1
    17    10    11    1
    18    11    12    1
    19    11    30    1
    20    11    31    1
    21    12    13    1
    22    12    32    1
    23    12    33    1
    24    13    14   am
    25    13    34    1
    26    14    15    2
    27    14    16    1
    28    16    22   ar
    29    16    17   ar
    30    17    18   ar
    31    17    35    1
    32    18    19   ar
    33    18    36    1
    34    19    20    1
    35    19    21   ar
    36    21    22   ar
    37    21    37    1
    38    22    38    1
    39    23    24   ar
    40    23    39    1
    41    24    25   ar
    42    24    40    1
@<TRIPOS>SUBSTRUCTURE
     1 ZINC000816269301        1 TEMP              0 ****  ****    0 ROOT


##########                                Name:    ZINC000269356812
##########                DOCK_Rotatable_Bonds:                  10
##########                         Heavy_Atoms:                  25
##########                    Molecular_Weight:             387.431
##########                DOCK_Rotatable_Bonds:                  10
##########                       Formal_Charge:          0.00999978
##########                     HBond_Acceptors:                  10
##########                        HBond_Donors:                   3
##########                         Heavy_Atoms:                  25
##########                          Grid_Score:          -34.101158
##########                     Grid_vdw_energy:          -30.410833
##########                      Grid_es_energy:           -3.690326
##########           Internal_energy_repulsive:            9.543525

@<TRIPOS>MOLECULE
ZINC000269356812
 40 41 1 0 0
SMALL
USER_CHARGES


@<TRIPOS>ATOM
      1 C1         -0.0503    2.1176   49.3111 C.3     1  ZINC000269356812   -0.1400
      2 C2         -1.1366    1.5367   48.4036 C.3     1  ZINC000269356812    0.2000
      3 O3         -1.5434    0.2614   48.9038 O.3     1  ZINC000269356812   -0.5400
      4 C4         -2.3394    2.4820   48.3786 C.3     1  ZINC000269356812    0.0900
      5 N5         -2.8833    2.6162   49.7322 N.am    1  ZINC000269356812   -0.6900
      6 C6         -2.9440    3.8291   50.3169 C.2     1  ZINC000269356812    0.5100
      7 O7         -2.5465    4.8098   49.7226 O.2     1  ZINC000269356812   -0.5100
      8 C8         -3.5000    3.9661   51.6960 C.2     1  ZINC000269356812    0.5100
      9 O9         -3.9568    5.0291   52.0633 O.2     1  ZINC000269356812   -0.4900
     10 N10        -3.4946    2.9097   52.5329 N.am    1  ZINC000269356812   -0.6400
     11 C11        -4.0156    3.0381   53.8251 C.ar    1  ZINC000269356812    0.0900
     12 C12        -3.1720    3.3058   54.9029 C.ar    1  ZINC000269356812   -0.0600
     13 C13        -3.7299    3.4252   56.1620 C.ar    1  ZINC000269356812   -0.1200
     14 C14        -5.1053    3.2752   56.3115 C.ar    1  ZINC000269356812    0.1000
     15 S15        -5.8291    3.4256   57.9109 S.3     1  ZINC000269356812   -0.0600
     16 C16        -6.8521    1.9331   58.0379 C.3     1  ZINC000269356812    0.2900
     17 F17        -6.9697    1.5612   59.3815 F       1  ZINC000269356812   -0.1700
     18 F18        -8.1227    2.1924   57.5129 F       1  ZINC000269356812   -0.1700
     19 N19        -5.8764    3.0214   55.2650 N.ar    1  ZINC000269356812   -0.4600
     20 C20        -5.3786    2.9065   54.0489 C.ar    1  ZINC000269356812    0.1100
     21 C21        -0.5929    1.3785   47.0072 C.2     1  ZINC000269356812   -0.2300
     22 C22         0.6813    1.1282   46.7019 C.2     1  ZINC000269356812   -0.1100
     23 C23         0.9468    1.0231   45.3474 C.2     1  ZINC000269356812   -0.1400
     24 C24        -0.1118    1.1880   44.5527 C.2     1  ZINC000269356812   -0.2000
     25 S25        -1.5426    1.4879   45.5308 S.3     1  ZINC000269356812    0.1100
     26 H26         0.8066    1.4441   49.3290 H       1  ZINC000269356812    0.0800
     27 H27         0.2600    3.0903   48.9296 H       1  ZINC000269356812    0.0800
     28 H28        -0.4435    2.2320   50.3213 H       1  ZINC000269356812    0.0700
     29 H29        -1.8838    0.2841   49.8087 H       1  ZINC000269356812    0.3800
     30 H30        -2.0252    3.4602   48.0146 H       1  ZINC000269356812    0.0900
     31 H31        -3.1058    2.0774   47.7175 H       1  ZINC000269356812    0.0900
     32 H32        -3.1999    1.8322   50.2077 H       1  ZINC000269356812    0.4200
     33 H33        -3.1294    2.0603   52.2393 H       1  ZINC000269356812    0.4300
     34 H34        -2.1076    3.4170   54.7573 H       1  ZINC000269356812    0.1600
     35 H35        -3.1060    3.6318   57.0191 H       1  ZINC000269356812    0.1500
     36 H36        -6.3852    1.1237   57.4765 H       1  ZINC000269356812    0.1500
     37 H37        -6.0383    2.6989   53.2194 H       1  ZINC000269356812    0.1700
     38 H38         1.4479    1.0165   47.4544 H       1  ZINC000269356812    0.1500
     39 H39         1.9361    0.8232   44.9631 H       1  ZINC000269356812    0.1400
     40 H40        -0.0938    1.1409   43.4739 H       1  ZINC000269356812    0.1700
@<TRIPOS>BOND
     1     1     2    1
     2     1    26    1
     3     1    27    1
     4     1    28    1
     5     2     3    1
     6     2     4    1
     7     2    21    1
     8     3    29    1
     9     4     5    1
    10     4    30    1
    11     4    31    1
    12     5     6   am
    13     5    32    1
    14     6     7    2
    15     6     8    1
    16     8     9    2
    17     8    10   am
    18    10    11    1
    19    10    33    1
    20    11    20   ar
    21    11    12   ar
    22    12    13   ar
    23    12    34    1
    24    13    14   ar
    25    13    35    1
    26    14    15    1
    27    14    19   ar
    28    15    16    1
    29    16    17    1
    30    16    18    1
    31    16    36    1
    32    19    20   ar
    33    20    37    1
    34    21    25    1
    35    21    22    2
    36    22    23    1
    37    22    38    1
    38    23    24    2
    39    23    39    1
    40    24    25    1
    41    24    40    1
@<TRIPOS>SUBSTRUCTURE
     1 ZINC000269356812        1 TEMP              0 ****  ****    0 ROOT


##########                                Name:    ZINC001127302705
##########                DOCK_Rotatable_Bonds:                   9
##########                         Heavy_Atoms:                  28
##########                    Molecular_Weight:             398.892
##########                DOCK_Rotatable_Bonds:                   9
##########                       Formal_Charge:          -0.0200002
##########                     HBond_Acceptors:                   7
##########                        HBond_Donors:                   1
##########                         Heavy_Atoms:                  28
##########                          Grid_Score:          -34.086834
##########                     Grid_vdw_energy:          -33.754852
##########                      Grid_es_energy:           -0.331982
##########           Internal_energy_repulsive:           26.020617

@<TRIPOS>MOLECULE
ZINC001127302705
 51 53 1 0 0
SMALL
USER_CHARGES


@<TRIPOS>ATOM
      1 C1          0.4585    3.3185   50.6704 C.3     1  ZINC001127302705   -0.1500
      2 C2         -0.4989    4.4598   50.3209 C.3     1  ZINC001127302705   -0.1400
      3 C3         -1.9393    4.0154   50.5825 C.3     1  ZINC001127302705    0.1800
      4 C4         -2.8969    5.1549   50.2284 C.3     1  ZINC001127302705   -0.1600
      5 C5         -2.2605    2.7927   49.7206 C.3     1  ZINC001127302705    0.0700
      6 O6         -1.6397    2.9355   48.4414 O.3     1  ZINC001127302705   -0.2800
      7 C7         -1.4954    1.8097   47.6976 C.ar    1  ZINC001127302705    0.3400
      8 N8         -1.2433    0.6576   48.2954 N.ar    1  ZINC001127302705   -0.5300
      9 C9         -1.0963   -0.4607   47.6103 C.ar    1  ZINC001127302705    0.1400
     10 C10        -1.2010   -0.4669   46.2339 C.ar    1  ZINC001127302705   -0.2000
     11 C11        -1.4649    0.7220   45.5674 C.ar    1  ZINC001127302705   -0.0300
     12 C12        -1.6197    1.8775   46.3145 C.ar    1  ZINC001127302705   -0.1100
     13 Cl13       -1.9511    3.3923   45.5340 Cl      1  ZINC001127302705   -0.0400
     14 N14        -2.0942    3.6694   51.9977 N.am    1  ZINC001127302705   -0.7100
     15 C15        -3.2603    3.1610   52.4434 C.2     1  ZINC001127302705    0.6200
     16 O16        -4.1830    2.9883   51.6708 O.2     1  ZINC001127302705   -0.5200
     17 C17        -3.4171    2.8139   53.8704 C.2     1  ZINC001127302705   -0.0200
     18 N18        -4.5228    2.9028   54.5825 N.2     1  ZINC001127302705   -0.2500
     19 N19        -4.3026    2.5194   55.7886 N.pl3   1  ZINC001127302705   -0.2800
     20 C20        -5.3076    2.4867   56.8541 C.3     1  ZINC001127302705    0.1600
     21 C21        -6.6670    2.7750   56.2712 C.ar    1  ZINC001127302705   -0.1200
     22 C22        -7.6449    1.7981   56.2816 C.ar    1  ZINC001127302705   -0.1000
     23 C23        -8.8919    2.0626   55.7469 C.ar    1  ZINC001127302705   -0.1200
     24 C24        -9.1611    3.3042   55.2021 C.ar    1  ZINC001127302705   -0.1100
     25 C25        -8.1835    4.2815   55.1925 C.ar    1  ZINC001127302705   -0.1200
     26 C26        -6.9378    4.0183   55.7311 C.ar    1  ZINC001127302705   -0.0800
     27 C27        -3.0116    2.1507   55.9331 C.2     1  ZINC001127302705   -0.0200
     28 C28        -2.4104    2.3166   54.7317 C.2     1  ZINC001127302705   -0.1800
     29 H29         0.2285    2.4497   50.0537 H       1  ZINC001127302705    0.0500
     30 H30         1.4846    3.6352   50.4840 H       1  ZINC001127302705    0.0600
     31 H31         0.3441    3.0578   51.7226 H       1  ZINC001127302705    0.0500
     32 H32        -0.2690    5.3286   50.9376 H       1  ZINC001127302705    0.0900
     33 H33        -0.3845    4.7205   49.2687 H       1  ZINC001127302705    0.0800
     34 H34        -2.7817    5.4123   49.1754 H       1  ZINC001127302705    0.0700
     35 H35        -3.9231    4.8383   50.4148 H       1  ZINC001127302705    0.0500
     36 H36        -2.6681    6.0259   50.8425 H       1  ZINC001127302705    0.0800
     37 H37        -1.8833    1.8944   50.2093 H       1  ZINC001127302705    0.0800
     38 H38        -3.3399    2.7112   49.5935 H       1  ZINC001127302705    0.0700
     39 H39        -0.8910   -1.3831   48.1333 H       1  ZINC001127302705    0.1700
     40 H40        -1.0786   -1.3867   45.6814 H       1  ZINC001127302705    0.1500
     41 H41        -1.5517    0.7445   44.4911 H       1  ZINC001127302705    0.1500
     42 H42        -1.3578    3.8060   52.6138 H       1  ZINC001127302705    0.4100
     43 H43        -5.3129    1.5006   57.3184 H       1  ZINC001127302705    0.1000
     44 H44        -5.0666    3.2401   57.6040 H       1  ZINC001127302705    0.1100
     45 H45        -7.4346    0.8280   56.7072 H       1  ZINC001127302705    0.1200
     46 H46        -9.6558    1.2990   55.7545 H       1  ZINC001127302705    0.1300
     47 H47       -10.1351    3.5107   54.7837 H       1  ZINC001127302705    0.1200
     48 H48        -8.3937    5.2514   54.7665 H       1  ZINC001127302705    0.1300
     49 H49        -6.1740    4.7818   55.7235 H       1  ZINC001127302705    0.1300
     50 H50        -2.5466    1.7866   56.8373 H       1  ZINC001127302705    0.1800
     51 H51        -1.3780    2.1183   54.4844 H       1  ZINC001127302705    0.1600
@<TRIPOS>BOND
     1     1     2    1
     2     1    29    1
     3     1    30    1
     4     1    31    1
     5     2     3    1
     6     2    32    1
     7     2    33    1
     8     3     4    1
     9     3     5    1
    10     3    14    1
    11     4    34    1
    12     4    35    1
    13     4    36    1
    14     5     6    1
    15     5    37    1
    16     5    38    1
    17     6     7    1
    18     7    12   ar
    19     7     8   ar
    20     8     9   ar
    21     9    10   ar
    22     9    39    1
    23    10    11   ar
    24    10    40    1
    25    11    12   ar
    26    11    41    1
    27    12    13    1
    28    14    15   am
    29    14    42    1
    30    15    16    2
    31    15    17    1
    32    17    28    1
    33    17    18    2
    34    18    19    1
    35    19    20    1
    36    19    27    1
    37    20    21    1
    38    20    43    1
    39    20    44    1
    40    21    26   ar
    41    21    22   ar
    42    22    23   ar
    43    22    45    1
    44    23    24   ar
    45    23    46    1
    46    24    25   ar
    47    24    47    1
    48    25    26   ar
    49    25    48    1
    50    26    49    1
    51    27    28    2
    52    27    50    1
    53    28    51    1
@<TRIPOS>SUBSTRUCTURE
     1 ZINC001127302705        1 TEMP              0 ****  ****    0 ROOT


##########                                Name:    ZINC000114394234
##########                DOCK_Rotatable_Bonds:                   9
##########                         Heavy_Atoms:                  27
##########                    Molecular_Weight:             365.392
##########                DOCK_Rotatable_Bonds:                   9
##########                       Formal_Charge:           0.0300002
##########                     HBond_Acceptors:                   8
##########                        HBond_Donors:                   3
##########                         Heavy_Atoms:                  27
##########                          Grid_Score:          -34.034813
##########                     Grid_vdw_energy:          -33.093300
##########                      Grid_es_energy:           -0.941514
##########           Internal_energy_repulsive:            8.276807

@<TRIPOS>MOLECULE
ZINC000114394234
 46 48 1 0 0
SMALL
USER_CHARGES


@<TRIPOS>ATOM
      1 C1         -3.2274    6.0307   50.7078 C.3     1  ZINC000114394234   -0.1600
      2 C2         -2.0395    5.1226   51.0320 C.3     1  ZINC000114394234    0.1300
      3 H3         -1.1145    5.6946   50.9598 H       1  ZINC000114394234    0.1200
      4 N4         -2.1836    4.5968   52.3918 N.am    1  ZINC000114394234   -0.7100
      5 C5         -1.1302    4.0257   53.0087 C.2     1  ZINC000114394234    0.5200
      6 O6         -0.0633    3.9456   52.4375 O.2     1  ZINC000114394234   -0.5100
      7 C7         -1.2779    3.4866   54.4081 C.3     1  ZINC000114394234    0.0400
      8 O8         -0.3817    2.3890   54.5928 O.3     1  ZINC000114394234   -0.2900
      9 C9          0.3192    2.3538   55.7567 C.ar    1  ZINC000114394234    0.1300
     10 C10         1.5788    1.7735   55.7919 C.ar    1  ZINC000114394234   -0.2100
     11 C11         2.2894    1.7394   56.9762 C.ar    1  ZINC000114394234   -0.0800
     12 C12         1.7461    2.2826   58.1256 C.ar    1  ZINC000114394234   -0.1600
     13 C13         0.4907    2.8611   58.0932 C.ar    1  ZINC000114394234   -0.0800
     14 C14        -0.2214    2.9032   56.9101 C.ar    1  ZINC000114394234   -0.1500
     15 C15        -2.0001    3.9781   50.0524 C.2     1  ZINC000114394234    0.5100
     16 O16        -2.7750    3.0524   50.1698 O.2     1  ZINC000114394234   -0.5100
     17 N17        -1.1038    3.9830   49.0459 N.am    1  ZINC000114394234   -0.6700
     18 C18        -1.0672    2.9203   48.1363 C.ar    1  ZINC000114394234    0.1300
     19 C19        -1.5376    3.0977   46.8412 C.ar    1  ZINC000114394234   -0.1200
     20 C20        -1.5030    2.0503   45.9400 C.ar    1  ZINC000114394234   -0.1000
     21 C21        -1.0016    0.8221   46.3218 C.ar    1  ZINC000114394234   -0.0900
     22 C22        -0.5281    0.6350   47.6193 C.ar    1  ZINC000114394234    0.0000
     23 C23         0.0109   -0.6849   48.0315 C.2     1  ZINC000114394234    0.2700
     24 N24        -0.6426   -1.8254   47.9936 N.2     1  ZINC000114394234   -0.3000
     25 N25         0.2372   -2.8110   48.4696 N.pl3   1  ZINC000114394234   -0.4800
     26 C26         1.3887   -2.1833   48.7692 C.2     1  ZINC000114394234    0.2700
     27 N27         1.2458   -0.9129   48.4985 N.2     1  ZINC000114394234   -0.5300
     28 C28        -0.5562    1.6911   48.5256 C.ar    1  ZINC000114394234   -0.0800
     29 H29        -4.1524    5.4587   50.7799 H       1  ZINC000114394234    0.0700
     30 H30        -3.2559    6.8586   51.4163 H       1  ZINC000114394234    0.0800
     31 H31        -3.1201    6.4218   49.6960 H       1  ZINC000114394234    0.0800
     32 H32        -3.0373    4.6598   52.8482 H       1  ZINC000114394234    0.4100
     33 H33        -1.0436    4.2719   55.1267 H       1  ZINC000114394234    0.1000
     34 H34        -2.3028    3.1484   54.5609 H       1  ZINC000114394234    0.1000
     35 H35         2.0034    1.3483   54.8944 H       1  ZINC000114394234    0.1300
     36 H36         3.2700    1.2878   57.0040 H       1  ZINC000114394234    0.1300
     37 H37         2.3031    2.2548   59.0505 H       1  ZINC000114394234    0.1300
     38 H38         0.0683    3.2844   58.9925 H       1  ZINC000114394234    0.1300
     39 H39        -1.2020    3.3552   56.8853 H       1  ZINC000114394234    0.1300
     40 H40        -0.4842    4.7234   48.9520 H       1  ZINC000114394234    0.4200
     41 H41        -1.9314    4.0564   46.5378 H       1  ZINC000114394234    0.1300
     42 H42        -1.8698    2.1930   44.9342 H       1  ZINC000114394234    0.1400
     43 H43        -0.9765    0.0058   45.6150 H       1  ZINC000114394234    0.1400
     44 H44         0.0511   -3.7583   48.5639 H       1  ZINC000114394234    0.4400
     45 H45         2.2800   -2.6501   49.1617 H       1  ZINC000114394234    0.2300
     46 H46        -0.1904    1.5510   49.5320 H       1  ZINC000114394234    0.1500
@<TRIPOS>BOND
     1     1     2    1
     2     1    29    1
     3     1    30    1
     4     1    31    1
     5     2     3    1
     6     2     4    1
     7     2    15    1
     8     4     5   am
     9     4    32    1
    10     5     6    2
    11     5     7    1
    12     7     8    1
    13     7    33    1
    14     7    34    1
    15     8     9    1
    16     9    14   ar
    17     9    10   ar
    18    10    11   ar
    19    10    35    1
    20    11    12   ar
    21    11    36    1
    22    12    13   ar
    23    12    37    1
    24    13    14   ar
    25    13    38    1
    26    14    39    1
    27    15    16    2
    28    15    17   am
    29    17    18    1
    30    17    40    1
    31    18    28   ar
    32    18    19   ar
    33    19    20   ar
    34    19    41    1
    35    20    21   ar
    36    20    42    1
    37    21    22   ar
    38    21    43    1
    39    22    23    1
    40    22    28   ar
    41    23    27    1
    42    23    24    2
    43    24    25    1
    44    25    26    1
    45    25    44    1
    46    26    27    2
    47    26    45    1
    48    28    46    1
@<TRIPOS>SUBSTRUCTURE
     1 ZINC000114394234        1 TEMP              0 ****  ****    0 ROOT


##########                                Name:    ZINC000766421809
##########                DOCK_Rotatable_Bonds:                   7
##########                         Heavy_Atoms:                  26
##########                    Molecular_Weight:             358.372
##########                DOCK_Rotatable_Bonds:                   7
##########                       Formal_Charge:         4.61936e-07
##########                     HBond_Acceptors:                   8
##########                        HBond_Donors:                   0
##########                         Heavy_Atoms:                  26
##########                          Grid_Score:          -34.034237
##########                     Grid_vdw_energy:          -34.296501
##########                      Grid_es_energy:            0.262265
##########           Internal_energy_repulsive:            5.816875

@<TRIPOS>MOLECULE
ZINC000766421809
 45 47 1 0 0
SMALL
USER_CHARGES


@<TRIPOS>ATOM
      1 C1         -3.2564    2.3042   55.5661 C.3     1  ZINC000766421809   -0.0700
      2 C2         -2.7688    3.0369   54.3428 C.2     1  ZINC000766421809    0.0700
      3 N3         -1.6456    3.7004   54.2428 N.2     1  ZINC000766421809   -0.2900
      4 N4         -1.5651    4.2322   52.9493 N.pl3   1  ZINC000766421809   -0.3700
      5 C5         -0.4674    5.0439   52.4179 C.3     1  ZINC000766421809    0.1000
      6 C6         -2.6774    3.8648   52.2792 C.2     1  ZINC000766421809    0.0700
      7 C7         -3.0116    4.2157   50.8523 C.3     1  ZINC000766421809    0.1400
      8 O8         -2.2058    3.4086   49.9539 O.3     1  ZINC000766421809   -0.3400
      9 C9         -2.6656    2.1827   49.6580 C.2     1  ZINC000766421809    0.4700
     10 O10        -3.6261    1.7404   50.2425 O.2     1  ZINC000766421809   -0.5000
     11 C11        -1.9838    1.3582   48.5966 C.3     1  ZINC000766421809   -0.1100
     12 C12        -1.7982    2.2036   47.3350 C.3     1  ZINC000766421809   -0.0200
     13 C13        -1.3017    1.3290   46.2127 C.2     1  ZINC000766421809    0.1900
     14 N14        -0.4614    1.6758   45.2698 N.2     1  ZINC000766421809   -0.4700
     15 C15        -0.3118    0.5777   44.4947 C.2     1  ZINC000766421809    0.2200
     16 C16         0.5445    0.4608   43.2885 C.ar    1  ZINC000766421809   -0.0300
     17 C17         0.0956   -0.2539   42.1798 C.ar    1  ZINC000766421809   -0.0500
     18 C18         0.8947   -0.3598   41.0600 C.ar    1  ZINC000766421809   -0.1500
     19 C19         2.1421    0.2429   41.0373 C.ar    1  ZINC000766421809    0.1200
     20 F20         2.9216    0.1364   39.9390 F       1  ZINC000766421809   -0.1300
     21 C21         2.5921    0.9550   42.1376 C.ar    1  ZINC000766421809   -0.1200
     22 C22         3.9494    1.6092   42.1067 C.3     1  ZINC000766421809   -0.1200
     23 C23         1.7975    1.0703   43.2592 C.ar    1  ZINC000766421809   -0.0600
     24 N24        -1.0628   -0.3620   45.0078 N.2     1  ZINC000766421809   -0.3700
     25 O25        -1.6315    0.0520   45.9959 O.3     1  ZINC000766421809    0.0900
     26 C26        -3.4361    3.1201   53.1163 C.2     1  ZINC000766421809   -0.2400
     27 H27        -2.8943    1.2764   55.5424 H       1  ZINC000766421809    0.0800
     28 H28        -2.8811    2.8010   56.4609 H       1  ZINC000766421809    0.0700
     29 H29        -4.3463    2.3052   55.5800 H       1  ZINC000766421809    0.0800
     30 H30         0.2802    4.3924   51.9655 H       1  ZINC000766421809    0.0800
     31 H31        -0.8546    5.7304   51.6649 H       1  ZINC000766421809    0.0900
     32 H32        -0.0111    5.6129   53.2280 H       1  ZINC000766421809    0.0900
     33 H33        -4.0679    4.0200   50.6679 H       1  ZINC000766421809    0.0900
     34 H34        -2.8022    5.2713   50.6791 H       1  ZINC000766421809    0.0900
     35 H35        -1.0102    1.0303   48.9607 H       1  ZINC000766421809    0.1200
     36 H36        -2.5967    0.4874   48.3634 H       1  ZINC000766421809    0.1200
     37 H37        -2.7519    2.6499   47.0531 H       1  ZINC000766421809    0.1200
     38 H38        -1.0715    2.9923   47.5298 H       1  ZINC000766421809    0.1200
     39 H39        -0.8764   -0.7246   42.1970 H       1  ZINC000766421809    0.1500
     40 H40         0.5476   -0.9135   40.2002 H       1  ZINC000766421809    0.1500
     41 H41         3.8553    2.6230   41.7176 H       1  ZINC000766421809    0.0800
     42 H42         4.3591    1.6441   43.1162 H       1  ZINC000766421809    0.0800
     43 H43         4.6155    1.0337   41.4639 H       1  ZINC000766421809    0.0700
     44 H44         2.1490    1.6254   44.1163 H       1  ZINC000766421809    0.1400
     45 H45        -4.3912    2.6741   52.8810 H       1  ZINC000766421809    0.1500
@<TRIPOS>BOND
     1     1     2    1
     2     1    27    1
     3     1    28    1
     4     1    29    1
     5     2    26    1
     6     2     3    2
     7     3     4    1
     8     4     5    1
     9     4     6    1
    10     5    30    1
    11     5    31    1
    12     5    32    1
    13     6     7    1
    14     6    26    2
    15     7     8    1
    16     7    33    1
    17     7    34    1
    18     8     9    1
    19     9    10    2
    20     9    11    1
    21    11    12    1
    22    11    35    1
    23    11    36    1
    24    12    13    1
    25    12    37    1
    26    12    38    1
    27    13    25    1
    28    13    14    2
    29    14    15    1
    30    15    16    1
    31    15    24    2
    32    16    23   ar
    33    16    17   ar
    34    17    18   ar
    35    17    39    1
    36    18    19   ar
    37    18    40    1
    38    19    20    1
    39    19    21   ar
    40    21    22    1
    41    21    23   ar
    42    22    41    1
    43    22    42    1
    44    22    43    1
    45    23    44    1
    46    24    25    1
    47    26    45    1
@<TRIPOS>SUBSTRUCTURE
     1 ZINC000766421809        1 TEMP              0 ****  ****    0 ROOT


##########                                Name:    ZINC000482540246
##########                DOCK_Rotatable_Bonds:                  10
##########                         Heavy_Atoms:                  30
##########                    Molecular_Weight:              409.46
##########                DOCK_Rotatable_Bonds:                  10
##########                       Formal_Charge:         2.83122e-07
##########                     HBond_Acceptors:                   7
##########                        HBond_Donors:                   2
##########                         Heavy_Atoms:                  30
##########                          Grid_Score:          -34.018482
##########                     Grid_vdw_energy:          -33.607872
##########                      Grid_es_energy:           -0.410610
##########           Internal_energy_repulsive:           17.204264

@<TRIPOS>MOLECULE
ZINC000482540246
 54 56 1 0 0
SMALL
USER_CHARGES


@<TRIPOS>ATOM
      1 C1         -2.8769    1.9247   55.6797 C.3     1  ZINC000482540246    0.0400
      2 O2         -3.3235    2.6501   54.5323 O.3     1  ZINC000482540246   -0.3100
      3 C3         -2.3691    3.2150   53.7509 C.ar    1  ZINC000482540246    0.3300
      4 C4         -2.7395    3.9110   52.6076 C.ar    1  ZINC000482540246   -0.1800
      5 C5         -1.7561    4.4827   51.8188 C.ar    1  ZINC000482540246   -0.0100
      6 C6         -2.1165    5.2464   50.5706 C.3     1  ZINC000482540246    0.2000
      7 H7         -1.3231    5.9564   50.3373 H       1  ZINC000482540246    0.1000
      8 C8         -3.4275    6.0024   50.7959 C.3     1  ZINC000482540246   -0.1600
      9 N9         -2.2780    4.3105   49.4552 N.am    1  ZINC000482540246   -0.7400
     10 C10        -1.1932    3.8343   48.8126 C.2     1  ZINC000482540246    0.7100
     11 O11        -0.0805    4.1826   49.1578 O.2     1  ZINC000482540246   -0.5800
     12 N12        -1.3416    2.9720   47.7874 N.am    1  ZINC000482540246   -0.7400
     13 C13        -0.1623    2.4531   47.0902 C.3     1  ZINC000482540246    0.2100
     14 H14         0.6720    3.1414   47.2254 H       1  ZINC000482540246    0.1200
     15 C15        -0.4721    2.3138   45.5984 C.3     1  ZINC000482540246    0.0500
     16 O16        -0.0239    1.0382   45.1358 O.3     1  ZINC000482540246   -0.3000
     17 C17         0.8999    1.0331   44.1383 C.ar    1  ZINC000482540246    0.1000
     18 C18         2.0836    1.7394   44.2845 C.ar    1  ZINC000482540246   -0.1800
     19 C19         3.0217    1.7323   43.2694 C.ar    1  ZINC000482540246   -0.0900
     20 C20         2.7814    1.0219   42.1084 C.ar    1  ZINC000482540246   -0.1300
     21 C21         1.6015    0.3161   41.9583 C.ar    1  ZINC000482540246   -0.1200
     22 C22         0.6619    0.3149   42.9729 C.ar    1  ZINC000482540246    0.0700
     23 F23        -0.4908   -0.3744   42.8266 F       1  ZINC000482540246   -0.1300
     24 C24         0.2025    1.1045   47.6555 C.ar    1  ZINC000482540246   -0.1000
     25 C25        -0.7913    0.2046   47.9926 C.ar    1  ZINC000482540246   -0.0800
     26 C26        -0.4566   -1.0323   48.5111 C.ar    1  ZINC000482540246   -0.1200
     27 C27         0.8717   -1.3696   48.6921 C.ar    1  ZINC000482540246   -0.1200
     28 C28         1.8654   -0.4701   48.3541 C.ar    1  ZINC000482540246   -0.1200
     29 C29         1.5309    0.7653   47.8315 C.ar    1  ZINC000482540246   -0.1000
     30 C30        -0.4309    4.3368   52.2039 C.ar    1  ZINC000482540246   -0.2100
     31 C31        -0.1351    3.6312   53.3535 C.ar    1  ZINC000482540246    0.1500
     32 N32        -1.0950    3.1021   54.0880 N.ar    1  ZINC000482540246   -0.5400
     33 H33        -3.7383    1.5258   56.2154 H       1  ZINC000482540246    0.1000
     34 H34        -2.2340    1.1035   55.3628 H       1  ZINC000482540246    0.0600
     35 H35        -2.3176    2.5915   56.3361 H       1  ZINC000482540246    0.0600
     36 H36        -3.7810    4.0048   52.3373 H       1  ZINC000482540246    0.1500
     37 H37        -4.2208    5.2923   51.0293 H       1  ZINC000482540246    0.0600
     38 H38        -3.3073    6.6986   51.6259 H       1  ZINC000482540246    0.0700
     39 H39        -3.6881    6.5547   49.8931 H       1  ZINC000482540246    0.0700
     40 H40        -3.1656    4.0336   49.1790 H       1  ZINC000482540246    0.4000
     41 H41        -2.2292    2.6951   47.5113 H       1  ZINC000482540246    0.4000
     42 H42        -1.5472    2.4002   45.4410 H       1  ZINC000482540246    0.0800
     43 H43         0.0404    3.1012   45.0458 H       1  ZINC000482540246    0.0800
     44 H44         2.2726    2.2953   45.1910 H       1  ZINC000482540246    0.1400
     45 H45         3.9438    2.2831   43.3834 H       1  ZINC000482540246    0.1300
     46 H46         3.5161    1.0182   41.3170 H       1  ZINC000482540246    0.1400
     47 H47         1.4159   -0.2379   41.0499 H       1  ZINC000482540246    0.1400
     48 H48        -1.8290    0.4682   47.8512 H       1  ZINC000482540246    0.1200
     49 H49        -1.2331   -1.7351   48.7753 H       1  ZINC000482540246    0.1200
     50 H50         1.1330   -2.3358   49.0978 H       1  ZINC000482540246    0.1200
     51 H51         2.9031   -0.7334   48.4957 H       1  ZINC000482540246    0.1200
     52 H52         2.3073    1.4680   47.5674 H       1  ZINC000482540246    0.1200
     53 H53         0.3608    4.7702   51.6106 H       1  ZINC000482540246    0.1400
     54 H54         0.8946    3.5148   53.6576 H       1  ZINC000482540246    0.1600
@<TRIPOS>BOND
     1     1     2    1
     2     1    33    1
     3     1    34    1
     4     1    35    1
     5     2     3    1
     6     3    32   ar
     7     3     4   ar
     8     4     5   ar
     9     4    36    1
    10     5     6    1
    11     5    30   ar
    12     6     7    1
    13     6     8    1
    14     6     9    1
    15     8    37    1
    16     8    38    1
    17     8    39    1
    18     9    10   am
    19     9    40    1
    20    10    11    2
    21    10    12   am
    22    12    13    1
    23    12    41    1
    24    13    14    1
    25    13    15    1
    26    13    24    1
    27    15    16    1
    28    15    42    1
    29    15    43    1
    30    16    17    1
    31    17    22   ar
    32    17    18   ar
    33    18    19   ar
    34    18    44    1
    35    19    20   ar
    36    19    45    1
    37    20    21   ar
    38    20    46    1
    39    21    22   ar
    40    21    47    1
    41    22    23    1
    42    24    29   ar
    43    24    25   ar
    44    25    26   ar
    45    25    48    1
    46    26    27   ar
    47    26    49    1
    48    27    28   ar
    49    27    50    1
    50    28    29   ar
    51    28    51    1
    52    29    52    1
    53    30    31   ar
    54    30    53    1
    55    31    32   ar
    56    31    54    1
@<TRIPOS>SUBSTRUCTURE
     1 ZINC000482540246        1 TEMP              0 ****  ****    0 ROOT


##########                                Name:    ZINC000672622940
##########                DOCK_Rotatable_Bonds:                   7
##########                         Heavy_Atoms:                  30
##########                    Molecular_Weight:             416.523
##########                DOCK_Rotatable_Bonds:                   7
##########                       Formal_Charge:          -0.0100002
##########                     HBond_Acceptors:                   9
##########                        HBond_Donors:                   1
##########                         Heavy_Atoms:                  30
##########                          Grid_Score:          -33.984844
##########                     Grid_vdw_energy:          -33.965012
##########                      Grid_es_energy:           -0.019834
##########           Internal_energy_repulsive:          156.333878

@<TRIPOS>MOLECULE
ZINC000672622940
 62 65 1 0 0
SMALL
USER_CHARGES


@<TRIPOS>ATOM
      1 C1         -3.9271    2.1674   55.5817 C.3     1  ZINC000672622940    0.0800
      2 N2         -3.4525    3.4546   56.0955 N.am    1  ZINC000672622940   -0.6200
      3 C3         -2.0220    3.7700   56.0726 C.3     1  ZINC000672622940    0.0700
      4 C4         -4.3320    4.3486   56.5893 C.2     1  ZINC000672622940    0.5200
      5 O5         -3.9393    5.4149   57.0133 O.2     1  ZINC000672622940   -0.5300
      6 C6         -5.8032    4.0233   56.6145 C.3     1  ZINC000672622940   -0.1000
      7 H7         -6.3273    4.7575   57.2265 H       1  ZINC000672622940    0.1000
      8 C8         -6.3579    4.0585   55.1890 C.3     1  ZINC000672622940   -0.1300
      9 C9         -7.8515    3.7282   55.2146 C.3     1  ZINC000672622940   -0.1100
     10 C10        -8.0551    2.3322   55.8067 C.3     1  ZINC000672622940   -0.1300
     11 C11        -7.5005    2.2971   57.2323 C.3     1  ZINC000672622940    0.1400
     12 H12        -8.0245    3.0312   57.8442 H       1  ZINC000672622940    0.1000
     13 N13        -7.6954    0.9603   57.7993 N.am    1  ZINC000672622940   -0.6900
     14 C14        -7.7638    0.7985   59.1355 C.2     1  ZINC000672622940    0.5100
     15 O15        -7.6656    1.7603   59.8690 O.2     1  ZINC000672622940   -0.5100
     16 C16        -7.9609   -0.5653   59.7140 C.2     1  ZINC000672622940    0.5100
     17 O17        -7.1182   -1.4225   59.5476 O.2     1  ZINC000672622940   -0.5200
     18 N18        -9.0745   -0.8432   60.4205 N.am    1  ZINC000672622940   -0.5800
     19 C19       -10.1064    0.1824   60.6254 C.3     1  ZINC000672622940    0.0700
     20 C20       -11.4567   -0.3786   60.1683 C.3     1  ZINC000672622940   -0.1200
     21 C21       -11.7288   -1.6978   60.8946 C.3     1  ZINC000672622940    0.0000
     22 C22       -13.0719   -2.2355   60.4729 C.2     1  ZINC000672622940    0.2000
     23 N23       -14.0748   -2.5159   61.2594 N.2     1  ZINC000672622940   -0.2800
     24 N24       -15.0628   -2.9525   60.5619 N.2     1  ZINC000672622940   -0.2800
     25 C25       -14.7340   -2.9692   59.2973 C.2     1  ZINC000672622940    0.1500
     26 C26       -15.2625   -3.3071   57.9201 C.3     1  ZINC000672622940   -0.0400
     27 C27       -14.2850   -2.6010   56.9530 C.3     1  ZINC000672622940   -0.1300
     28 C28       -13.0045   -2.5064   57.8112 C.3     1  ZINC000672622940    0.1000
     29 N29       -13.4652   -2.5122   59.2050 N.pl3   1  ZINC000672622940   -0.4900
     30 C30       -10.6391   -2.7119   60.5392 C.3     1  ZINC000672622940   -0.1200
     31 C31        -9.2824   -2.1792   60.9953 C.3     1  ZINC000672622940    0.1100
     32 C32        -6.0068    2.6274   57.2067 C.3     1  ZINC000672622940   -0.1100
     33 H33        -3.9389    1.4357   56.3896 H       1  ZINC000672622940    0.0600
     34 H34        -4.9348    2.2845   55.1829 H       1  ZINC000672622940    0.0800
     35 H35        -3.2608    1.8241   54.7903 H       1  ZINC000672622940    0.0700
     36 H36        -1.7732    4.2606   55.1316 H       1  ZINC000672622940    0.0600
     37 H37        -1.7832    4.4344   56.9031 H       1  ZINC000672622940    0.0800
     38 H38        -1.4456    2.8497   56.1661 H       1  ZINC000672622940    0.0700
     39 H39        -6.2128    5.0531   54.7672 H       1  ZINC000672622940    0.0800
     40 H40        -5.8338    3.3243   54.5771 H       1  ZINC000672622940    0.0700
     41 H41        -8.3756    4.4623   55.8265 H       1  ZINC000672622940    0.0700
     42 H42        -8.2466    3.7532   54.1990 H       1  ZINC000672622940    0.0700
     43 H43        -9.1192    2.0968   55.8250 H       1  ZINC000672622940    0.0700
     44 H44        -7.5310    1.5980   55.1948 H       1  ZINC000672622940    0.0700
     45 H45        -7.7752    0.1917   57.2130 H       1  ZINC000672622940    0.4100
     46 H46       -10.1579    0.4428   61.6826 H       1  ZINC000672622940    0.0700
     47 H47        -9.8619    1.0688   60.0400 H       1  ZINC000672622940    0.1400
     48 H48       -12.2458    0.3356   60.4035 H       1  ZINC000672622940    0.0800
     49 H49       -11.4325   -0.5537   59.0927 H       1  ZINC000672622940    0.0800
     50 H50       -11.7279   -1.5266   61.9711 H       1  ZINC000672622940    0.0900
     51 H51       -15.2459   -4.3851   57.7591 H       1  ZINC000672622940    0.1000
     52 H52       -16.2725   -2.9173   57.7931 H       1  ZINC000672622940    0.1000
     53 H53       -14.1135   -3.2050   56.0620 H       1  ZINC000672622940    0.1100
     54 H54       -14.6494   -1.6090   56.6858 H       1  ZINC000672622940    0.0900
     55 H55       -12.3585   -3.3634   57.6198 H       1  ZINC000672622940    0.1000
     56 H56       -12.4745   -1.5785   57.5962 H       1  ZINC000672622940    0.1000
     57 H57       -10.8462   -3.6586   61.0383 H       1  ZINC000672622940    0.0800
     58 H58       -10.6227   -2.8651   59.4601 H       1  ZINC000672622940    0.0800
     59 H59        -8.4935   -2.8510   60.6567 H       1  ZINC000672622940    0.1000
     60 H60        -9.2640   -2.1096   62.0829 H       1  ZINC000672622940    0.0800
     61 H61        -5.4827    1.8931   56.5947 H       1  ZINC000672622940    0.0800
     62 H62        -5.6117    2.6022   58.2222 H       1  ZINC000672622940    0.0800
@<TRIPOS>BOND
     1     1     2    1
     2     1    33    1
     3     1    34    1
     4     1    35    1
     5     2     3    1
     6     2     4   am
     7     3    36    1
     8     3    37    1
     9     3    38    1
    10     4     5    2
    11     4     6    1
    12     6     7    1
    13     6    32    1
    14     6     8    1
    15     8     9    1
    16     8    39    1
    17     8    40    1
    18     9    10    1
    19     9    41    1
    20     9    42    1
    21    10    11    1
    22    10    43    1
    23    10    44    1
    24    11    12    1
    25    11    13    1
    26    11    32    1
    27    13    14   am
    28    13    45    1
    29    14    15    2
    30    14    16    1
    31    16    17    2
    32    16    18   am
    33    18    31    1
    34    18    19    1
    35    19    20    1
    36    19    46    1
    37    19    47    1
    38    20    21    1
    39    20    48    1
    40    20    49    1
    41    21    22    1
    42    21    30    1
    43    21    50    1
    44    22    29    1
    45    22    23    2
    46    23    24    1
    47    24    25    2
    48    25    29    1
    49    25    26    1
    50    26    27    1
    51    26    51    1
    52    26    52    1
    53    27    28    1
    54    27    53    1
    55    27    54    1
    56    28    29    1
    57    28    55    1
    58    28    56    1
    59    30    31    1
    60    30    57    1
    61    30    58    1
    62    31    59    1
    63    31    60    1
    64    32    61    1
    65    32    62    1
@<TRIPOS>SUBSTRUCTURE
     1 ZINC000672622940        1 TEMP              0 ****  ****    0 ROOT


##########                                Name:    ZINC000880838037
##########                DOCK_Rotatable_Bonds:                   9
##########                         Heavy_Atoms:                  24
##########                    Molecular_Weight:             365.477
##########                DOCK_Rotatable_Bonds:                   9
##########                       Formal_Charge:           0.0200001
##########                     HBond_Acceptors:                   8
##########                        HBond_Donors:                   3
##########                         Heavy_Atoms:                  24
##########                          Grid_Score:          -33.983345
##########                     Grid_vdw_energy:          -32.331211
##########                      Grid_es_energy:           -1.652134
##########           Internal_energy_repulsive:           10.266658

@<TRIPOS>MOLECULE
ZINC000880838037
 43 44 1 0 0
SMALL
USER_CHARGES


@<TRIPOS>ATOM
      1 C1         -0.2398    0.4499   43.3569 C.3     1  ZINC000880838037    0.0300
      2 O2         -1.3003    0.9335   44.1836 O.3     1  ZINC000880838037   -0.3100
      3 C3         -1.2274    0.6483   45.5103 C.ar    1  ZINC000880838037    0.1400
      4 C4         -1.1069   -0.6683   45.9318 C.ar    1  ZINC000880838037   -0.2200
      5 C5         -1.0327   -0.9599   47.2808 C.ar    1  ZINC000880838037   -0.0700
      6 C6         -1.0788    0.0577   48.2136 C.ar    1  ZINC000880838037   -0.1500
      7 C7         -1.1999    1.3777   47.7973 C.ar    1  ZINC000880838037    0.1800
      8 N8         -1.2466    2.4087   48.7422 N.am    1  ZINC000880838037   -0.6700
      9 C9         -0.1282    3.0978   49.0436 C.2     1  ZINC000880838037    0.5200
     10 O10         0.9187    2.8242   48.4958 O.2     1  ZINC000880838037   -0.4900
     11 C11        -0.1786    4.2080   50.0612 C.3     1  ZINC000880838037   -0.0600
     12 C12         0.3131    3.6943   51.3900 C.2     1  ZINC000880838037    0.1000
     13 C13         1.6000    3.4458   51.6348 C.2     1  ZINC000880838037   -0.2600
     14 S14         1.7399    2.8658   53.2923 S.3     1  ZINC000880838037    0.1300
     15 C15         0.0491    3.0135   53.4979 C.2     1  ZINC000880838037    0.0100
     16 S16        -0.8256    2.6249   54.9773 S.3     1  ZINC000880838037    0.1000
     17 C17        -2.5024    3.0946   54.4836 C.3     1  ZINC000880838037   -0.1500
     18 H18        -2.6664    2.8152   53.4429 H       1  ZINC000880838037    0.1200
     19 C19        -2.6752    4.6068   54.6391 C.3     1  ZINC000880838037   -0.1500
     20 C20        -3.5018    2.3823   55.3583 C.2     1  ZINC000880838037    0.5400
     21 N21        -3.1201    1.3132   56.0848 N.am    1  ZINC000880838037   -0.8400
     22 O22        -4.6494    2.7712   55.4086 O.2     1  ZINC000880838037   -0.5200
     23 N23        -0.4955    3.4591   52.4077 N.2     1  ZINC000880838037   -0.4200
     24 C24        -1.2679    1.6728   46.4432 C.ar    1  ZINC000880838037   -0.1500
     25 C25        -1.3992    3.1035   45.9880 C.3     1  ZINC000880838037   -0.1000
     26 H26        -0.1962   -0.6373   43.4208 H       1  ZINC000880838037    0.0600
     27 H27        -0.4206    0.7462   42.3235 H       1  ZINC000880838037    0.1000
     28 H28         0.7063    0.8720   43.6956 H       1  ZINC000880838037    0.0600
     29 H29        -1.0713   -1.4662   45.2048 H       1  ZINC000880838037    0.1300
     30 H30        -0.9390   -1.9854   47.6062 H       1  ZINC000880838037    0.1300
     31 H31        -1.0211   -0.1728   49.2671 H       1  ZINC000880838037    0.1400
     32 H32        -2.0840    2.6274   49.1803 H       1  ZINC000880838037    0.4100
     33 H33         0.4558    5.0312   49.7326 H       1  ZINC000880838037    0.1200
     34 H34        -1.2051    4.5596   50.1650 H       1  ZINC000880838037    0.1200
     35 H35         2.4147    3.5768   50.9380 H       1  ZINC000880838037    0.1800
     36 H36        -2.5112    4.8862   55.6799 H       1  ZINC000880838037    0.0900
     37 H37        -1.9524    5.1221   54.0064 H       1  ZINC000880838037    0.0800
     38 H38        -3.6849    4.8897   54.3417 H       1  ZINC000880838037    0.0800
     39 H39        -3.7635    0.8540   56.6470 H       1  ZINC000880838037    0.4000
     40 H40        -2.2018    1.0030   56.0455 H       1  ZINC000880838037    0.4100
     41 H41        -0.4072    3.5318   45.8452 H       1  ZINC000880838037    0.0700
     42 H42        -1.9482    3.1364   45.0469 H       1  ZINC000880838037    0.0700
     43 H43        -1.9373    3.6769   46.7428 H       1  ZINC000880838037    0.0600
@<TRIPOS>BOND
     1     1     2    1
     2     1    26    1
     3     1    27    1
     4     1    28    1
     5     2     3    1
     6     3    24   ar
     7     3     4   ar
     8     4     5   ar
     9     4    29    1
    10     5     6   ar
    11     5    30    1
    12     6     7   ar
    13     6    31    1
    14     7     8    1
    15     7    24   ar
    16     8     9   am
    17     8    32    1
    18     9    10    2
    19     9    11    1
    20    11    12    1
    21    11    33    1
    22    11    34    1
    23    12    23    1
    24    12    13    2
    25    13    14    1
    26    13    35    1
    27    14    15    1
    28    15    16    1
    29    15    23    2
    30    16    17    1
    31    17    18    1
    32    17    19    1
    33    17    20    1
    34    19    36    1
    35    19    37    1
    36    19    38    1
    37    20    21   am
    38    20    22    2
    39    21    39    1
    40    21    40    1
    41    24    25    1
    42    25    41    1
    43    25    42    1
    44    25    43    1
@<TRIPOS>SUBSTRUCTURE
     1 ZINC000880838037        1 TEMP              0 ****  ****    0 ROOT


##########                                Name:    ZINC000523153175
##########                DOCK_Rotatable_Bonds:                   9
##########                         Heavy_Atoms:                  30
##########                    Molecular_Weight:             413.603
##########                DOCK_Rotatable_Bonds:                   9
##########                       Formal_Charge:           0.0499987
##########                     HBond_Acceptors:                   5
##########                        HBond_Donors:                   1
##########                         Heavy_Atoms:                  30
##########                          Grid_Score:          -33.955444
##########                     Grid_vdw_energy:          -31.974756
##########                      Grid_es_energy:           -1.980690
##########           Internal_energy_repulsive:           37.908020

@<TRIPOS>MOLECULE
ZINC000523153175
 69 71 1 0 0
SMALL
USER_CHARGES


@<TRIPOS>ATOM
      1 C1          0.3441   -1.1690   48.6844 C.3     1  ZINC000523153175   -0.1500
      2 C2          0.0807   -0.1086   47.6133 C.3     1  ZINC000523153175   -0.0600
      3 C3         -1.1183   -0.5308   46.7618 C.3     1  ZINC000523153175   -0.1400
      4 C4         -0.2141    1.2123   48.2760 C.ar    1  ZINC000523153175   -0.0800
      5 C5         -1.4171    1.8510   48.0397 C.ar    1  ZINC000523153175   -0.1100
      6 C6         -1.6875    3.0626   48.6477 C.ar    1  ZINC000523153175   -0.1100
      7 C7         -0.7550    3.6356   49.4923 C.ar    1  ZINC000523153175   -0.0800
      8 C8         -1.0496    4.9568   50.1546 C.3     1  ZINC000523153175   -0.0300
      9 H9         -0.2185    5.2308   50.8044 H       1  ZINC000523153175    0.0800
     10 C10        -1.2364    6.0336   49.0839 C.3     1  ZINC000523153175   -0.1500
     11 C11        -2.3286    4.8366   50.9856 C.3     1  ZINC000523153175   -0.1300
     12 C12        -1.9728    4.4846   52.4070 C.2     1  ZINC000523153175    0.5200
     13 O13        -0.8419    4.1441   52.6826 O.2     1  ZINC000523153175   -0.5300
     14 N14        -2.9114    4.5482   53.3722 N.am    1  ZINC000523153175   -0.6200
     15 C15        -4.2907    4.9511   53.0585 C.3     1  ZINC000523153175    0.1100
     16 C16        -5.2475    3.9035   53.6375 C.3     1  ZINC000523153175    0.0400
     17 N17        -4.9632    3.7225   55.0673 N.3     1  ZINC000523153175   -0.5100
     18 C18        -5.9676    2.8557   55.6981 C.3     1  ZINC000523153175    0.0600
     19 H19        -5.6194    1.8230   55.6795 H       1  ZINC000523153175    0.1100
     20 C20        -6.1825    3.2953   57.1477 C.3     1  ZINC000523153175   -0.1800
     21 C21        -7.2675    2.9613   54.9430 C.2     1  ZINC000523153175    0.5200
     22 O22        -8.0126    3.8963   55.1462 O.2     1  ZINC000523153175   -0.5200
     23 N23        -7.6020    2.0164   54.0420 N.am    1  ZINC000523153175   -0.7200
     24 C24        -8.8649    2.1199   53.3067 C.3     1  ZINC000523153175    0.1400
     25 C25        -8.8732    1.1249   52.1278 C.3     1  ZINC000523153175   -0.1300
     26 C26        -9.6118   -0.1175   52.6845 C.3     1  ZINC000523153175   -0.1300
     27 C27       -10.7214    0.5103   53.5641 C.3     1  ZINC000523153175   -0.1300
     28 C28       -10.0401    1.7291   54.2199 C.3     1  ZINC000523153175   -0.1300
     29 C29        -3.6075    3.1978   55.2789 C.3     1  ZINC000523153175    0.0400
     30 C30        -2.5851    4.2106   54.7661 C.3     1  ZINC000523153175    0.1200
     31 C31         0.4473    2.9962   49.7296 C.ar    1  ZINC000523153175   -0.1100
     32 C32         0.7162    1.7827   49.1247 C.ar    1  ZINC000523153175   -0.1200
     33 H33         0.5573   -2.1245   48.2050 H       1  ZINC000523153175    0.0600
     34 H34         1.1982   -0.8682   49.2910 H       1  ZINC000523153175    0.0600
     35 H35        -0.5355   -1.2697   49.3201 H       1  ZINC000523153175    0.0600
     36 H36         0.9603   -0.0079   46.9776 H       1  ZINC000523153175    0.0800
     37 H37        -1.9980   -0.6315   47.3975 H       1  ZINC000523153175    0.0600
     38 H38        -1.3061    0.2247   45.9988 H       1  ZINC000523153175    0.0600
     39 H39        -0.9051   -1.4862   46.2824 H       1  ZINC000523153175    0.0600
     40 H40        -2.1457    1.4034   47.3799 H       1  ZINC000523153175    0.1200
     41 H41        -2.6272    3.5620   48.4625 H       1  ZINC000523153175    0.1200
     42 H42        -1.4495    6.9892   49.5629 H       1  ZINC000523153175    0.0800
     43 H43        -0.3252    6.1191   48.4918 H       1  ZINC000523153175    0.0600
     44 H44        -2.0675    5.7595   48.4341 H       1  ZINC000523153175    0.0500
     45 H45        -2.8631    5.7865   50.9695 H       1  ZINC000523153175    0.0900
     46 H46        -2.9627    4.0557   50.5658 H       1  ZINC000523153175    0.0900
     47 H47        -4.4986    5.9234   53.5050 H       1  ZINC000523153175    0.0800
     48 H48        -4.4191    5.0064   51.9775 H       1  ZINC000523153175    0.0900
     49 H49        -6.2762    4.2410   53.5111 H       1  ZINC000523153175    0.0900
     50 H50        -5.1084    2.9563   53.1164 H       1  ZINC000523153175    0.0400
     51 H51        -6.5308    4.3281   57.1663 H       1  ZINC000523153175    0.0700
     52 H52        -6.9278    2.6522   57.6157 H       1  ZINC000523153175    0.0700
     53 H53        -5.2423    3.2190   57.6938 H       1  ZINC000523153175    0.0700
     54 H54        -7.0066    1.2679   53.8804 H       1  ZINC000523153175    0.4000
     55 H55        -9.0002    3.1370   52.9387 H       1  ZINC000523153175    0.0900
     56 H56        -9.4153    1.5428   51.2796 H       1  ZINC000523153175    0.0700
     57 H57        -7.8541    0.8658   51.8402 H       1  ZINC000523153175    0.0700
     58 H58       -10.0462   -0.7037   51.8747 H       1  ZINC000523153175    0.0700
     59 H59        -8.9399   -0.7283   53.2876 H       1  ZINC000523153175    0.0700
     60 H60       -11.5621    0.8289   52.9479 H       1  ZINC000523153175    0.0700
     61 H61       -11.0513   -0.1974   54.3248 H       1  ZINC000523153175    0.0700
     62 H62        -9.6708    1.4624   55.2102 H       1  ZINC000523153175    0.0700
     63 H63       -10.7461    2.5562   54.2945 H       1  ZINC000523153175    0.0800
     64 H64        -3.4469    3.0236   56.3428 H       1  ZINC000523153175    0.1000
     65 H65        -3.4913    2.2605   54.7348 H       1  ZINC000523153175    0.0400
     66 H66        -1.5854    3.7788   54.8154 H       1  ZINC000523153175    0.1000
     67 H67        -2.6272    5.1138   55.3748 H       1  ZINC000523153175    0.0800
     68 H68         1.1757    3.4436   50.3897 H       1  ZINC000523153175    0.1200
     69 H69         1.6555    1.2832   49.3102 H       1  ZINC000523153175    0.1200
@<TRIPOS>BOND
     1     1     2    1
     2     1    33    1
     3     1    34    1
     4     1    35    1
     5     2     3    1
     6     2     4    1
     7     2    36    1
     8     3    37    1
     9     3    38    1
    10     3    39    1
    11     4    32   ar
    12     4     5   ar
    13     5     6   ar
    14     5    40    1
    15     6     7   ar
    16     6    41    1
    17     7     8    1
    18     7    31   ar
    19     8     9    1
    20     8    10    1
    21     8    11    1
    22    10    42    1
    23    10    43    1
    24    10    44    1
    25    11    12    1
    26    11    45    1
    27    11    46    1
    28    12    13    2
    29    12    14   am
    30    14    30    1
    31    14    15    1
    32    15    16    1
    33    15    47    1
    34    15    48    1
    35    16    17    1
    36    16    49    1
    37    16    50    1
    38    17    18    1
    39    17    29    1
    40    18    19    1
    41    18    20    1
    42    18    21    1
    43    20    51    1
    44    20    52    1
    45    20    53    1
    46    21    22    2
    47    21    23   am
    48    23    24    1
    49    23    54    1
    50    24    28    1
    51    24    25    1
    52    24    55    1
    53    25    26    1
    54    25    56    1
    55    25    57    1
    56    26    27    1
    57    26    58    1
    58    26    59    1
    59    27    28    1
    60    27    60    1
    61    27    61    1
    62    28    62    1
    63    28    63    1
    64    29    30    1
    65    29    64    1
    66    29    65    1
    67    30    66    1
    68    30    67    1
    69    31    32   ar
    70    31    68    1
    71    32    69    1
@<TRIPOS>SUBSTRUCTURE
     1 ZINC000523153175        1 TEMP              0 ****  ****    0 ROOT


##########                                Name:    ZINC000767361237
##########                DOCK_Rotatable_Bonds:                  10
##########                         Heavy_Atoms:                  30
##########                    Molecular_Weight:             409.439
##########                DOCK_Rotatable_Bonds:                  10
##########                       Formal_Charge:          -0.0300005
##########                     HBond_Acceptors:                   7
##########                        HBond_Donors:                   1
##########                         Heavy_Atoms:                  30
##########                          Grid_Score:          -33.926586
##########                     Grid_vdw_energy:          -33.012009
##########                      Grid_es_energy:           -0.914578
##########           Internal_energy_repulsive:           17.181410

@<TRIPOS>MOLECULE
ZINC000767361237
 53 55 1 0 0
SMALL
USER_CHARGES


@<TRIPOS>ATOM
      1 C1         -7.9357    0.0136   59.0288 C.3     1  ZINC000767361237   -0.1200
      2 C2         -7.5986    1.0400   57.9780 C.ar    1  ZINC000767361237   -0.0900
      3 C3         -6.4416    1.7883   58.0887 C.ar    1  ZINC000767361237   -0.1200
      4 C4         -6.1324    2.7297   57.1249 C.ar    1  ZINC000767361237   -0.1100
      5 C5         -6.9801    2.9226   56.0501 C.ar    1  ZINC000767361237   -0.0800
      6 C6         -6.6433    3.9493   54.9996 C.3     1  ZINC000767361237   -0.0800
      7 H7         -5.9167    4.6553   55.4015 H       1  ZINC000767361237    0.0900
      8 C8         -7.9135    4.6998   54.5944 C.3     1  ZINC000767361237   -0.1500
      9 C9         -6.0513    3.2500   53.7744 C.3     1  ZINC000767361237    0.1300
     10 H10        -6.2576    3.8425   52.8829 H       1  ZINC000767361237    0.1400
     11 O11        -6.6408    1.9560   53.6332 O.3     1  ZINC000767361237   -0.5200
     12 C12        -4.5612    3.1070   53.9487 C.2     1  ZINC000767361237    0.4300
     13 O13        -4.1060    2.7946   55.0235 O.2     1  ZINC000767361237   -0.5000
     14 O14        -3.7398    3.3266   52.9100 O.3     1  ZINC000767361237   -0.3300
     15 C15        -2.3917    3.7694   53.2179 C.3     1  ZINC000767361237    0.0100
     16 C16        -1.8357    4.5378   52.0468 C.2     1  ZINC000767361237    0.3700
     17 O17        -1.7512    5.7413   52.0997 O.2     1  ZINC000767361237   -0.4200
     18 C18        -1.3851    3.8044   50.8099 C.3     1  ZINC000767361237   -0.1800
     19 C19        -2.5465    3.7163   49.8177 C.3     1  ZINC000767361237    0.1200
     20 N20        -2.1330    2.9341   48.6501 N.am    1  ZINC000767361237   -0.5800
     21 C21        -2.2601    1.5991   48.5445 C.2     1  ZINC000767361237    0.5700
     22 O22        -2.7285    0.8626   49.3890 O.2     1  ZINC000767361237   -0.4600
     23 C23        -1.7349    1.1786   47.2283 C.ar    1  ZINC000767361237   -0.1400
     24 C24        -1.6080   -0.0400   46.5817 C.ar    1  ZINC000767361237   -0.0400
     25 C25        -1.0544   -0.0896   45.3114 C.ar    1  ZINC000767361237   -0.0900
     26 C26        -0.6289    1.0674   44.6871 C.ar    1  ZINC000767361237   -0.0900
     27 C27        -0.7495    2.2940   45.3221 C.ar    1  ZINC000767361237   -0.0400
     28 C28        -1.3007    2.3590   46.5914 C.ar    1  ZINC000767361237   -0.1400
     29 C29        -1.5815    3.4570   47.5401 C.2     1  ZINC000767361237    0.5700
     30 O30        -1.3511    4.6343   47.3502 O.2     1  ZINC000767361237   -0.4600
     31 C31        -8.1364    2.1734   55.9386 C.ar    1  ZINC000767361237   -0.1100
     32 C32        -8.4437    1.2292   56.9005 C.ar    1  ZINC000767361237   -0.1200
     33 H33        -7.5003   -0.9465   58.7517 H       1  ZINC000767361237    0.0700
     34 H34        -7.5321    0.3317   59.9901 H       1  ZINC000767361237    0.0700
     35 H35        -9.0184   -0.0868   59.1045 H       1  ZINC000767361237    0.0700
     36 H36        -5.7794    1.6375   58.9284 H       1  ZINC000767361237    0.1200
     37 H37        -5.2289    3.3148   57.2118 H       1  ZINC000767361237    0.1200
     38 H38        -7.6700    5.4425   53.8346 H       1  ZINC000767361237    0.0800
     39 H39        -8.6402    3.9937   54.1926 H       1  ZINC000767361237    0.0700
     40 H40        -8.3353    5.1980   55.4674 H       1  ZINC000767361237    0.0600
     41 H41        -6.3927    1.3327   54.3297 H       1  ZINC000767361237    0.3900
     42 H42        -2.4126    4.4126   54.0977 H       1  ZINC000767361237    0.1100
     43 H43        -1.7611    2.9027   53.4162 H       1  ZINC000767361237    0.1100
     44 H44        -0.5552    4.3417   50.3510 H       1  ZINC000767361237    0.1100
     45 H45        -1.0618    2.7993   51.0809 H       1  ZINC000767361237    0.1100
     46 H46        -3.3975    3.2321   50.2966 H       1  ZINC000767361237    0.1100
     47 H47        -2.8305    4.7198   49.5008 H       1  ZINC000767361237    0.1100
     48 H48        -1.9386   -0.9474   47.0650 H       1  ZINC000767361237    0.1400
     49 H49        -0.9548   -1.0391   44.8066 H       1  ZINC000767361237    0.1400
     50 H50        -0.1990    1.0159   43.6977 H       1  ZINC000767361237    0.1400
     51 H51        -0.4156    3.1951   44.8292 H       1  ZINC000767361237    0.1400
     52 H52        -8.7985    2.3238   55.0988 H       1  ZINC000767361237    0.1200
     53 H53        -9.3471    0.6438   56.8135 H       1  ZINC000767361237    0.1200
@<TRIPOS>BOND
     1     1     2    1
     2     1    33    1
     3     1    34    1
     4     1    35    1
     5     2    32   ar
     6     2     3   ar
     7     3     4   ar
     8     3    36    1
     9     4     5   ar
    10     4    37    1
    11     5     6    1
    12     5    31   ar
    13     6     7    1
    14     6     8    1
    15     6     9    1
    16     8    38    1
    17     8    39    1
    18     8    40    1
    19     9    10    1
    20     9    11    1
    21     9    12    1
    22    11    41    1
    23    12    13    2
    24    12    14    1
    25    14    15    1
    26    15    16    1
    27    15    42    1
    28    15    43    1
    29    16    17    2
    30    16    18    1
    31    18    19    1
    32    18    44    1
    33    18    45    1
    34    19    20    1
    35    19    46    1
    36    19    47    1
    37    20    29   am
    38    20    21   am
    39    21    22    2
    40    21    23    1
    41    23    28   ar
    42    23    24   ar
    43    24    25   ar
    44    24    48    1
    45    25    26   ar
    46    25    49    1
    47    26    27   ar
    48    26    50    1
    49    27    28   ar
    50    27    51    1
    51    28    29    1
    52    29    30    2
    53    31    32   ar
    54    31    52    1
    55    32    53    1
@<TRIPOS>SUBSTRUCTURE
     1 ZINC000767361237        1 TEMP              0 ****  ****    0 ROOT


##########                                Name:    ZINC001289410668
##########                DOCK_Rotatable_Bonds:                  11
##########                         Heavy_Atoms:                  26
##########                    Molecular_Weight:             362.515
##########                DOCK_Rotatable_Bonds:                  11
##########                       Formal_Charge:          -0.0400008
##########                     HBond_Acceptors:                   6
##########                        HBond_Donors:                   1
##########                         Heavy_Atoms:                  26
##########                          Grid_Score:          -33.904789
##########                     Grid_vdw_energy:          -33.606937
##########                      Grid_es_energy:           -0.297852
##########           Internal_energy_repulsive:           19.403053

@<TRIPOS>MOLECULE
ZINC001289410668
 60 61 1 0 0
SMALL
USER_CHARGES


@<TRIPOS>ATOM
      1 C1         -7.5553    3.8213   57.8115 C.3     1  ZINC001289410668   -0.1500
      2 C2         -6.2077    3.8788   57.0891 C.3     1  ZINC001289410668   -0.1300
      3 C3         -5.5257    2.5118   57.1727 C.3     1  ZINC001289410668   -0.1200
      4 C4         -4.1784    2.5690   56.4497 C.3     1  ZINC001289410668   -0.1200
      5 C5         -4.4024    2.9390   54.9821 C.3     1  ZINC001289410668   -0.1100
      6 C6         -3.0553    2.9949   54.2589 C.3     1  ZINC001289410668   -0.1400
      7 C7         -3.2728    3.3938   52.8220 C.2     1  ZINC001289410668    0.5100
      8 O8         -4.3216    3.1321   52.2721 O.2     1  ZINC001289410668   -0.5300
      9 N9         -2.3017    4.0413   52.1481 N.am    1  ZINC001289410668   -0.7200
     10 C10        -2.5123    4.4276   50.7507 C.3     1  ZINC001289410668    0.1400
     11 H11        -3.5340    4.7734   50.5929 H       1  ZINC001289410668    0.1100
     12 C12        -2.1676    3.2593   49.7938 C.3     1  ZINC001289410668    0.0800
     13 N13        -1.8258    3.9076   48.5145 N.am    1  ZINC001289410668   -0.6200
     14 C14        -1.9044    3.3340   47.2975 C.2     1  ZINC001289410668    0.5100
     15 O15        -1.5980    3.9656   46.3085 O.2     1  ZINC001289410668   -0.5100
     16 C16        -2.3731    1.9078   47.1656 C.3     1  ZINC001289410668    0.0900
     17 N17        -1.2497    1.0000   47.4106 N.pl3   1  ZINC001289410668   -0.4500
     18 C18        -1.0115    0.2941   48.5590 C.2     1  ZINC001289410668   -0.0500
     19 C19         0.1186   -0.4098   48.3563 C.2     1  ZINC001289410668   -0.0200
     20 N20         0.5583   -0.1411   47.1180 N.2     1  ZINC001289410668   -0.4800
     21 C21        -0.2591    0.6986   46.5437 C.2     1  ZINC001289410668    0.2300
     22 C22        -0.1160    1.2484   45.1479 C.3     1  ZINC001289410668   -0.0100
     23 C23         1.3684    1.3759   44.7996 C.3     1  ZINC001289410668   -0.1400
     24 C24        -0.7933    0.3017   44.1551 C.3     1  ZINC001289410668   -0.1400
     25 C25        -1.3856    5.2839   48.7864 C.3     1  ZINC001289410668    0.1100
     26 C26        -1.4863    5.5051   50.3108 C.3     1  ZINC001289410668   -0.1100
     27 H27        -0.5216    5.3363   50.7895 H       1  ZINC001289410668    0.0900
     28 C28        -2.0035    6.9112   50.6208 C.3     1  ZINC001289410668   -0.1400
     29 H29        -8.0412    4.7952   57.7521 H       1  ZINC001289410668    0.0500
     30 H30        -8.1885    3.0698   57.3401 H       1  ZINC001289410668    0.0500
     31 H31        -7.3960    3.5581   58.8572 H       1  ZINC001289410668    0.0500
     32 H32        -6.3670    4.1421   56.0434 H       1  ZINC001289410668    0.0600
     33 H33        -5.5745    4.6303   57.5606 H       1  ZINC001289410668    0.0600
     34 H34        -5.3659    2.2487   58.2183 H       1  ZINC001289410668    0.0600
     35 H35        -6.1591    1.7602   56.7015 H       1  ZINC001289410668    0.0600
     36 H36        -3.5447    3.3202   56.9211 H       1  ZINC001289410668    0.0600
     37 H37        -3.6927    1.5951   56.5088 H       1  ZINC001289410668    0.0600
     38 H38        -5.0369    2.1883   54.5110 H       1  ZINC001289410668    0.0700
     39 H39        -4.8872    3.9134   54.9230 H       1  ZINC001289410668    0.0700
     40 H40        -2.4116    3.7274   54.7459 H       1  ZINC001289410668    0.1000
     41 H41        -2.5820    2.0136   54.2959 H       1  ZINC001289410668    0.1000
     42 H42        -1.4633    4.2517   52.5883 H       1  ZINC001289410668    0.4000
     43 H43        -1.3147    2.6968   50.1737 H       1  ZINC001289410668    0.0800
     44 H44        -3.0298    2.6044   49.6685 H       1  ZINC001289410668    0.0800
     45 H45        -3.1611    1.7156   47.8937 H       1  ZINC001289410668    0.1200
     46 H46        -2.7598    1.7441   46.1597 H       1  ZINC001289410668    0.1200
     47 H47        -1.6138    0.3009   49.4555 H       1  ZINC001289410668    0.1700
     48 H48         0.5884   -1.0742   49.0664 H       1  ZINC001289410668    0.1700
     49 H49        -0.5874    2.2297   45.0938 H       1  ZINC001289410668    0.0700
     50 H50         1.8398    0.3946   44.8537 H       1  ZINC001289410668    0.0700
     51 H51         1.4718    1.7735   43.7901 H       1  ZINC001289410668    0.0600
     52 H52         1.8509    2.0503   45.5070 H       1  ZINC001289410668    0.0500
     53 H53        -0.3218   -0.6796   44.2092 H       1  ZINC001289410668    0.0700
     54 H54        -1.8509    0.2108   44.4031 H       1  ZINC001289410668    0.0600
     55 H55        -0.6899    0.6992   43.1454 H       1  ZINC001289410668    0.0600
     56 H56        -0.3540    5.4146   48.4597 H       1  ZINC001289410668    0.0800
     57 H57        -2.0334    5.9897   48.2664 H       1  ZINC001289410668    0.0800
     58 H58        -2.9810    7.0489   50.1586 H       1  ZINC001289410668    0.0600
     59 H59        -2.0911    7.0365   51.7000 H       1  ZINC001289410668    0.0600
     60 H60        -1.3070    7.6502   50.2246 H       1  ZINC001289410668    0.0700
@<TRIPOS>BOND
     1     1     2    1
     2     1    29    1
     3     1    30    1
     4     1    31    1
     5     2     3    1
     6     2    32    1
     7     2    33    1
     8     3     4    1
     9     3    34    1
    10     3    35    1
    11     4     5    1
    12     4    36    1
    13     4    37    1
    14     5     6    1
    15     5    38    1
    16     5    39    1
    17     6     7    1
    18     6    40    1
    19     6    41    1
    20     7     8    2
    21     7     9   am
    22     9    10    1
    23     9    42    1
    24    10    11    1
    25    10    26    1
    26    10    12    1
    27    12    13    1
    28    12    43    1
    29    12    44    1
    30    13    14   am
    31    13    25    1
    32    14    15    2
    33    14    16    1
    34    16    17    1
    35    16    45    1
    36    16    46    1
    37    17    21    1
    38    17    18    1
    39    18    19    2
    40    18    47    1
    41    19    20    1
    42    19    48    1
    43    20    21    2
    44    21    22    1
    45    22    23    1
    46    22    24    1
    47    22    49    1
    48    23    50    1
    49    23    51    1
    50    23    52    1
    51    24    53    1
    52    24    54    1
    53    24    55    1
    54    25    26    1
    55    25    56    1
    56    25    57    1
    57    26    27    1
    58    26    28    1
    59    28    58    1
    60    28    59    1
    61    28    60    1
@<TRIPOS>SUBSTRUCTURE
     1 ZINC001289410668        1 TEMP              0 ****  ****    0 ROOT


##########                                Name:    ZINC000369046711
##########                DOCK_Rotatable_Bonds:                   8
##########                         Heavy_Atoms:                  26
##########                    Molecular_Weight:             367.467
##########                DOCK_Rotatable_Bonds:                   8
##########                       Formal_Charge:        -7.63685e-07
##########                     HBond_Acceptors:                   8
##########                        HBond_Donors:                   1
##########                         Heavy_Atoms:                  26
##########                          Grid_Score:          -33.852867
##########                     Grid_vdw_energy:          -32.020699
##########                      Grid_es_energy:           -1.832169
##########           Internal_energy_repulsive:           20.138456

@<TRIPOS>MOLECULE
ZINC000369046711
 56 58 1 0 0
SMALL
USER_CHARGES


@<TRIPOS>ATOM
      1 C1         -0.1434    2.4980   55.3633 C.3     1  ZINC000369046711   -0.1800
      2 C2          0.3674    3.3737   54.2173 C.3     1  ZINC000369046711    0.1400
      3 C3         -0.7830    4.2225   53.6722 C.3     1  ZINC000369046711   -0.1800
      4 C4          1.4783    4.2909   54.7325 C.3     1  ZINC000369046711   -0.1400
      5 O5          0.8896    2.5288   53.1582 O.3     1  ZINC000369046711   -0.3700
      6 C6          0.8917    3.0407   51.9129 C.2     1  ZINC000369046711    0.6500
      7 O7          1.5424    4.0370   51.6667 O.2     1  ZINC000369046711   -0.5700
      8 N8          0.1722    2.4481   50.9395 N.am    1  ZINC000369046711   -0.7100
      9 C9          0.1760    3.0042   49.5841 C.3     1  ZINC000369046711    0.1800
     10 H10         1.0659    3.6203   49.4555 H       1  ZINC000369046711    0.0900
     11 C11        -1.0651    3.8767   49.4000 C.3     1  ZINC000369046711   -0.1300
     12 C12        -2.3023    2.9874   49.5709 C.3     1  ZINC000369046711   -0.1200
     13 C13        -2.3093    1.9507   48.4511 C.3     1  ZINC000369046711   -0.1200
     14 C14        -1.0806    1.0427   48.5353 C.3     1  ZINC000369046711   -0.1000
     15 H15        -1.1557    0.3274   49.3541 H       1  ZINC000369046711    0.0900
     16 C16        -0.9532    0.3464   47.1527 C.3     1  ZINC000369046711    0.0400
     17 N17        -0.0730    1.1934   46.3243 N.3     1  ZINC000369046711   -0.5200
     18 C18        -0.7614    1.6318   45.1029 C.3     1  ZINC000369046711    0.1200
     19 C19        -0.1522    0.9440   43.9085 C.2     1  ZINC000369046711    0.2900
     20 N20        -0.7749    0.1419   43.0835 N.2     1  ZINC000369046711   -0.5400
     21 C21         0.0688   -0.2844   42.1445 C.2     1  ZINC000369046711    0.2000
     22 N22         1.2453    0.2429   42.3599 N.2     1  ZINC000369046711   -0.3200
     23 N23         1.1244    1.0522   43.5013 N.pl3   1  ZINC000369046711   -0.3700
     24 C24         2.1817    1.8484   44.1292 C.3     1  ZINC000369046711    0.1000
     25 C25         1.9416    3.3319   43.8424 C.3     1  ZINC000369046711    0.0500
     26 F26         2.9845    4.0874   44.3891 F       1  ZINC000369046711   -0.2000
     27 C27         0.3628    2.3556   47.1349 C.3     1  ZINC000369046711    0.0500
     28 C28         0.2136    1.8726   48.5888 C.3     1  ZINC000369046711   -0.1000
     29 H29         1.0484    1.2169   48.8361 H       1  ZINC000369046711    0.0900
     30 H30        -0.9348    1.8446   54.9962 H       1  ZINC000369046711    0.0900
     31 H31         0.6761    1.8934   55.7516 H       1  ZINC000369046711    0.0600
     32 H32        -0.5354    3.1324   56.1583 H       1  ZINC000369046711    0.0700
     33 H33        -1.1750    4.8568   54.4672 H       1  ZINC000369046711    0.0700
     34 H34        -0.4191    4.8464   52.8558 H       1  ZINC000369046711    0.0600
     35 H35        -1.5744    3.5690   53.3052 H       1  ZINC000369046711    0.0900
     36 H36         2.2979    3.6863   55.1209 H       1  ZINC000369046711    0.0700
     37 H37         1.8422    4.9148   53.9161 H       1  ZINC000369046711    0.0700
     38 H38         1.0863    4.9252   55.5275 H       1  ZINC000369046711    0.0800
     39 H39        -0.3481    1.6536   51.1363 H       1  ZINC000369046711    0.4000
     40 H40        -1.0737    4.6675   50.1501 H       1  ZINC000369046711    0.0700
     41 H41        -1.0620    4.3152   48.4021 H       1  ZINC000369046711    0.0800
     42 H42        -2.2618    2.4838   50.5368 H       1  ZINC000369046711    0.0600
     43 H43        -3.2038    3.5973   49.5120 H       1  ZINC000369046711    0.0700
     44 H44        -3.2101    1.3424   48.5322 H       1  ZINC000369046711    0.0700
     45 H45        -2.3101    2.4633   47.4891 H       1  ZINC000369046711    0.0600
     46 H46        -0.5118   -0.6429   47.2734 H       1  ZINC000369046711    0.0800
     47 H47        -1.9350    0.2620   46.6865 H       1  ZINC000369046711    0.0800
     48 H48        -1.8187    1.3753   45.1699 H       1  ZINC000369046711    0.0800
     49 H49        -0.6557    2.7111   44.9938 H       1  ZINC000369046711    0.1000
     50 H50        -0.1790   -0.9571   41.3367 H       1  ZINC000369046711    0.2200
     51 H51         2.1722    1.6803   45.2062 H       1  ZINC000369046711    0.1200
     52 H52         3.1491    1.5519   43.7238 H       1  ZINC000369046711    0.1100
     53 H53         1.9030    3.4921   42.7650 H       1  ZINC000369046711    0.0900
     54 H54         0.9966    3.6401   44.2897 H       1  ZINC000369046711    0.0800
     55 H55         1.4016    2.6043   46.9184 H       1  ZINC000369046711    0.0900
     56 H56        -0.2832    3.2139   46.9501 H       1  ZINC000369046711    0.0600
@<TRIPOS>BOND
     1     1     2    1
     2     1    30    1
     3     1    31    1
     4     1    32    1
     5     2     3    1
     6     2     4    1
     7     2     5    1
     8     3    33    1
     9     3    34    1
    10     3    35    1
    11     4    36    1
    12     4    37    1
    13     4    38    1
    14     5     6    1
    15     6     7    2
    16     6     8   am
    17     8     9    1
    18     8    39    1
    19     9    10    1
    20     9    28    1
    21     9    11    1
    22    11    12    1
    23    11    40    1
    24    11    41    1
    25    12    13    1
    26    12    42    1
    27    12    43    1
    28    13    14    1
    29    13    44    1
    30    13    45    1
    31    14    15    1
    32    14    28    1
    33    14    16    1
    34    16    17    1
    35    16    46    1
    36    16    47    1
    37    17    18    1
    38    17    27    1
    39    18    19    1
    40    18    48    1
    41    18    49    1
    42    19    23    1
    43    19    20    2
    44    20    21    1
    45    21    22    2
    46    21    50    1
    47    22    23    1
    48    23    24    1
    49    24    25    1
    50    24    51    1
    51    24    52    1
    52    25    26    1
    53    25    53    1
    54    25    54    1
    55    27    28    1
    56    27    55    1
    57    27    56    1
    58    28    29    1
@<TRIPOS>SUBSTRUCTURE
     1 ZINC000369046711        1 TEMP              0 ****  ****    0 ROOT


##########                                Name:    ZINC000467185792
##########                DOCK_Rotatable_Bonds:                   9
##########                         Heavy_Atoms:                  29
##########                    Molecular_Weight:             412.513
##########                DOCK_Rotatable_Bonds:                   9
##########                       Formal_Charge:                0.04
##########                     HBond_Acceptors:                   8
##########                        HBond_Donors:                   2
##########                         Heavy_Atoms:                  29
##########                          Grid_Score:          -33.795895
##########                     Grid_vdw_energy:          -34.385651
##########                      Grid_es_energy:            0.589756
##########           Internal_energy_repulsive:           30.670290

@<TRIPOS>MOLECULE
ZINC000467185792
 53 55 1 0 0
SMALL
USER_CHARGES


@<TRIPOS>ATOM
      1 C1         -7.3233    3.0407   60.2669 C.3     1  ZINC000467185792   -0.1500
      2 C2         -7.5406    3.0465   58.7524 C.3     1  ZINC000467185792   -0.1200
      3 C3         -6.1891    3.1578   58.0438 C.3     1  ZINC000467185792    0.0600
      4 O4         -6.3927    3.1721   56.6294 O.3     1  ZINC000467185792   -0.3100
      5 C5         -5.2841    3.2516   55.8472 C.ar    1  ZINC000467185792    0.1400
      6 C6         -4.0433    3.4809   56.4258 C.ar    1  ZINC000467185792   -0.2100
      7 C7         -2.9162    3.5617   55.6347 C.ar    1  ZINC000467185792   -0.0400
      8 C8         -3.0242    3.4127   54.2530 C.ar    1  ZINC000467185792   -0.0600
      9 C9         -1.8140    3.4985   53.3994 C.2     1  ZINC000467185792    0.1400
     10 C10        -0.5891    3.7188   53.9091 C.2     1  ZINC000467185792   -0.3000
     11 S11         0.5645    3.7496   52.5774 S.3     1  ZINC000467185792    0.2000
     12 C12        -0.7444    3.4562   51.4362 C.2     1  ZINC000467185792    0.2800
     13 N13        -0.5990    3.3424   50.0603 N.am    1  ZINC000467185792   -0.6100
     14 C14        -1.6357    2.9283   49.3050 C.2     1  ZINC000467185792    0.5900
     15 O15        -2.6984    2.6544   49.8290 O.2     1  ZINC000467185792   -0.4900
     16 C16        -1.4813    2.8075   47.8446 C.2     1  ZINC000467185792   -0.2400
     17 C17        -1.3993    1.5617   47.2258 C.2     1  ZINC000467185792    0.0800
     18 C18        -1.4664    0.2896   48.0310 C.3     1  ZINC000467185792   -0.1200
     19 C19        -0.0695   -0.0619   48.5468 C.3     1  ZINC000467185792   -0.1400
     20 C20        -1.2532    1.5270   45.8337 C.2     1  ZINC000467185792    0.0600
     21 C21        -1.1613    0.1999   45.1254 C.3     1  ZINC000467185792   -0.0600
     22 C22        -0.5933    0.4101   43.7204 C.3     1  ZINC000467185792   -0.1500
     23 N23        -1.1964    2.6337   45.1439 N.2     1  ZINC000467185792   -0.1800
     24 N24        -1.2687    3.7960   45.6812 N.am    1  ZINC000467185792   -0.4300
     25 C25        -1.4160    3.9589   47.0100 C.2     1  ZINC000467185792    0.5000
     26 O26        -1.4816    5.0764   47.4924 O.2     1  ZINC000467185792   -0.5300
     27 N27        -1.8647    3.3578   52.0823 N.2     1  ZINC000467185792   -0.5000
     28 C28        -4.2717    3.1826   53.6750 C.ar    1  ZINC000467185792   -0.0600
     29 C29        -5.3942    3.0976   54.4720 C.ar    1  ZINC000467185792   -0.1500
     30 H30        -6.8308    3.9656   60.5668 H       1  ZINC000467185792    0.0600
     31 H31        -8.2860    2.9615   60.7717 H       1  ZINC000467185792    0.0700
     32 H32        -6.6982    2.1909   60.5410 H       1  ZINC000467185792    0.0600
     33 H33        -8.0330    2.1215   58.4525 H       1  ZINC000467185792    0.0700
     34 H34        -8.1657    3.8964   58.4783 H       1  ZINC000467185792    0.0700
     35 H35        -5.6936    4.0795   58.3489 H       1  ZINC000467185792    0.0600
     36 H36        -5.5666    2.3044   58.3125 H       1  ZINC000467185792    0.0600
     37 H37        -3.9604    3.5965   57.4963 H       1  ZINC000467185792    0.1300
     38 H38        -1.9511    3.7404   56.0855 H       1  ZINC000467185792    0.1300
     39 H39        -0.3531    3.8538   54.9543 H       1  ZINC000467185792    0.1800
     40 H40         0.2487    3.5609   49.6424 H       1  ZINC000467185792    0.4400
     41 H41        -2.1410    0.4294   48.8757 H       1  ZINC000467185792    0.0900
     42 H42        -1.8355   -0.5200   47.4013 H       1  ZINC000467185792    0.1300
     43 H43         0.6052   -0.2017   47.7021 H       1  ZINC000467185792    0.0600
     44 H44         0.2996    0.7477   49.1765 H       1  ZINC000467185792    0.0600
     45 H45        -0.1181   -0.9820   49.1292 H       1  ZINC000467185792    0.0700
     46 H46        -0.5061   -0.4666   45.6863 H       1  ZINC000467185792    0.1000
     47 H47        -2.1546   -0.2429   45.0532 H       1  ZINC000467185792    0.1000
     48 H48        -0.5267   -0.5497   43.2081 H       1  ZINC000467185792    0.0600
     49 H49        -1.2484    1.0767   43.1596 H       1  ZINC000467185792    0.0600
     50 H50         0.4001    0.8530   43.7926 H       1  ZINC000467185792    0.0600
     51 H51        -1.2201    4.5810   45.1133 H       1  ZINC000467185792    0.4500
     52 H52        -4.3586    3.0671   52.6048 H       1  ZINC000467185792    0.1300
     53 H53        -6.3609    2.9190   54.0250 H       1  ZINC000467185792    0.1400
@<TRIPOS>BOND
     1     1     2    1
     2     1    30    1
     3     1    31    1
     4     1    32    1
     5     2     3    1
     6     2    33    1
     7     2    34    1
     8     3     4    1
     9     3    35    1
    10     3    36    1
    11     4     5    1
    12     5    29   ar
    13     5     6   ar
    14     6     7   ar
    15     6    37    1
    16     7     8   ar
    17     7    38    1
    18     8     9    1
    19     8    28   ar
    20     9    27    1
    21     9    10    2
    22    10    11    1
    23    10    39    1
    24    11    12    1
    25    12    13    1
    26    12    27    2
    27    13    14   am
    28    13    40    1
    29    14    15    2
    30    14    16    1
    31    16    25    1
    32    16    17    2
    33    17    18    1
    34    17    20    1
    35    18    19    1
    36    18    41    1
    37    18    42    1
    38    19    43    1
    39    19    44    1
    40    19    45    1
    41    20    21    1
    42    20    23    2
    43    21    22    1
    44    21    46    1
    45    21    47    1
    46    22    48    1
    47    22    49    1
    48    22    50    1
    49    23    24    1
    50    24    25   am
    51    24    51    1
    52    25    26    2
    53    28    29   ar
    54    28    52    1
    55    29    53    1
@<TRIPOS>SUBSTRUCTURE
     1 ZINC000467185792        1 TEMP              0 ****  ****    0 ROOT


##########                                Name:     oleObject17.pdb
##########                DOCK_Rotatable_Bonds:                   8
##########                         Heavy_Atoms:                  29
##########                    Molecular_Weight:             435.393
##########                DOCK_Rotatable_Bonds:                   8
##########                       Formal_Charge:         0.000400059
##########                     HBond_Acceptors:                   6
##########                        HBond_Donors:                   0
##########                         Heavy_Atoms:                  29
##########                          Grid_Score:          -33.790600
##########                     Grid_vdw_energy:          -33.478207
##########                      Grid_es_energy:           -0.312394
##########           Internal_energy_repulsive:           16.003551

@<TRIPOS>MOLECULE
oleObject17.pdb
 57 59 1 0 0
SMALL
NO_CHARGES


@<TRIPOS>ATOM
      1 C          -8.3219    3.0390   55.2360 C.3     1  UNL         0.0391
      2 C          -8.6132    1.7624   54.4442 C.ar    1  UNL        -0.0277
      3 C          -9.2726    0.6419   55.0097 C.ar    1  UNL        -0.0463
      4 C          -9.4756   -0.5106   54.2251 C.ar    1  UNL        -0.0590
      5 C          -9.0366   -0.5590   52.8940 C.ar    1  UNL        -0.0620
      6 C          -8.4006    0.5539   52.3285 C.ar    1  UNL        -0.0619
      7 C          -8.1966    1.7079   53.0994 C.ar    1  UNL        -0.0572
      8 C          -9.7814    0.6395   56.4470 C.3     1  UNL        -0.0394
      9 N          -6.8796    3.2323   55.4981 N.am    1  UNL        -0.3003
     10 C          -6.1331    4.1560   54.7669 C.2     1  UNL         0.2175
     11 O          -6.7005    5.0272   54.1300 O.2     1  UNL        -0.2772
     12 C          -4.6285    4.2754   55.1269 C.3     1  UNL         0.0384
     13 C          -4.0377    5.6642   54.7754 C.3     1  UNL        -0.0289
     14 C          -3.9413    5.8655   53.2506 C.3     1  UNL        -0.0010
     15 N          -3.1325    4.8074   52.6065 N.4     1  UNL        -0.3010
     16 C          -3.5639    3.4259   52.9243 C.3     1  UNL        -0.0010
     17 C          -3.7547    3.1877   54.4445 C.3     1  UNL        -0.0289
     18 C          -2.9008    5.0431   51.1630 C.3     1  UNL         0.0222
     19 C          -2.5670    3.7577   50.3709 C.3     1  UNL         0.0661
     20 O          -1.9039    4.1355   49.1526 O.3     1  UNL        -0.3432
     21 C          -1.6916    3.2533   48.1104 C.ar    1  UNL         0.0937
     22 C          -1.7816    1.8555   48.2857 C.ar    1  UNL        -0.0288
     23 C          -1.5669    0.9912   47.1994 C.ar    1  UNL        -0.0408
     24 C          -1.2588    1.5157   45.9344 C.ar    1  UNL         0.0422
     25 C          -1.1635    2.9043   45.7527 C.ar    1  UNL        -0.0221
     26 C          -1.3786    3.7712   46.8372 C.ar    1  UNL         0.0723
     27 CL         -1.2577    5.5010   46.5751 Cl      1  UNL        -0.0814
     28 CL         -0.9926    0.4362   44.5822 Cl      1  UNL        -0.0843
     29 C          -6.2938    2.3921   56.5586 C.3     1  UNL         0.0031
     30 H          -8.8483    3.0368   56.1969 H       1  UNL         0.0520
     31 H          -8.7117    3.8929   54.6676 H       1  UNL         0.0520
     32 H          -9.9762   -1.3771   54.6476 H       1  UNL         0.0626
     33 H          -9.1958   -1.4551   52.3007 H       1  UNL         0.0623
     34 H          -8.0644    0.5224   51.2962 H       1  UNL         0.0623
     35 H          -7.6985    2.5629   52.6520 H       1  UNL         0.0626
     36 H         -10.4417    1.4949   56.6353 H       1  UNL         0.0280
     37 H          -8.9524    0.6831   57.1625 H       1  UNL         0.0280
     38 H         -10.3574   -0.2667   56.6715 H       1  UNL         0.0280
     39 H          -4.5429    4.1296   56.2102 H       1  UNL         0.0402
     40 H          -3.0324    5.7489   55.2081 H       1  UNL         0.0288
     41 H          -4.6311    6.4713   55.2175 H       1  UNL         0.0288
     42 H          -3.4985    6.8493   53.0491 H       1  UNL         0.0431
     43 H          -4.9564    5.8652   52.8374 H       1  UNL         0.0431
     44 H          -2.8200    2.7124   52.5475 H       1  UNL         0.0431
     45 H          -4.5071    3.2058   52.4118 H       1  UNL         0.0431
     46 H          -2.7653    3.1819   54.9199 H       1  UNL         0.0288
     47 H          -4.1868    2.1932   54.6144 H       1  UNL         0.0288
     48 H          -2.0785    5.7588   51.0359 H       1  UNL         0.0455
     49 H          -3.7975    5.4990   50.7240 H       1  UNL         0.0455
     50 H          -3.4892    3.2161   50.1311 H       1  UNL         0.0586
     51 H          -1.9175    3.1064   50.9680 H       1  UNL         0.0586
     52 H          -2.0148    1.4276   49.2552 H       1  UNL         0.0651
     53 H          -1.6385   -0.0836   47.3401 H       1  UNL         0.0639
     54 H          -0.9246    3.3089   44.7733 H       1  UNL         0.0655
     55 H          -6.7793    1.4081   56.5750 H       1  UNL         0.0433
     56 H          -6.4284    2.8707   57.5361 H       1  UNL         0.0433
     57 H          -5.2233    2.2402   56.3740 H       1  UNL         0.0433
@<TRIPOS>BOND
     1     1     2    1
     2     1     9    1
     3     1    30    1
     4     1    31    1
     5     2     3   ar
     6     2     7   ar
     7     3     4   ar
     8     3     8    1
     9     4     5   ar
    10     4    32    1
    11     5     6   ar
    12     5    33    1
    13     6     7   ar
    14     6    34    1
    15     7    35    1
    16     8    36    1
    17     8    37    1
    18     8    38    1
    19     9    10   am
    20     9    29    1
    21    10    11    2
    22    10    12    1
    23    12    13    1
    24    12    17    1
    25    12    39    1
    26    13    14    1
    27    13    40    1
    28    13    41    1
    29    14    15    1
    30    14    42    1
    31    14    43    1
    32    15    16    1
    33    15    18    1
    34    16    17    1
    35    16    44    1
    36    16    45    1
    37    17    46    1
    38    17    47    1
    39    18    19    1
    40    18    48    1
    41    18    49    1
    42    19    20    1
    43    19    50    1
    44    19    51    1
    45    20    21    1
    46    21    22   ar
    47    21    26   ar
    48    22    23   ar
    49    22    52    1
    50    23    24   ar
    51    23    53    1
    52    24    25   ar
    53    24    28    1
    54    25    26   ar
    55    25    54    1
    56    26    27    1
    57    29    55    1
    58    29    56    1
    59    29    57    1
@<TRIPOS>SUBSTRUCTURE
     1 UNL         1 TEMP              0 ****  ****    0 ROOT


##########                                Name:    ZINC000547864253
##########                DOCK_Rotatable_Bonds:                   6
##########                         Heavy_Atoms:                  30
##########                    Molecular_Weight:             422.548
##########                DOCK_Rotatable_Bonds:                   6
##########                       Formal_Charge:           0.0300002
##########                     HBond_Acceptors:                   6
##########                        HBond_Donors:                   2
##########                         Heavy_Atoms:                  30
##########                          Grid_Score:          -33.785225
##########                     Grid_vdw_energy:          -32.033222
##########                      Grid_es_energy:           -1.752003
##########           Internal_energy_repulsive:           11.573929

@<TRIPOS>MOLECULE
ZINC000547864253
 56 60 1 0 0
SMALL
USER_CHARGES


@<TRIPOS>ATOM
      1 O1          1.1343    3.6447   49.9687 O.2     1  ZINC000547864253   -0.5300
      2 C2         -0.0583    3.5016   50.1365 C.2     1  ZINC000547864253    0.5400
      3 N3         -0.5402    3.2539   51.3706 N.am    1  ZINC000547864253   -0.7200
      4 C4          0.3771    3.1516   52.5082 C.3     1  ZINC000547864253    0.1300
      5 C5         -0.1663    3.9756   53.6773 C.3     1  ZINC000547864253    0.0200
      6 H6         -0.4715    4.9585   53.3181 H       1  ZINC000547864253    0.0900
      7 C7         -1.3538    3.2702   54.2799 C.2     1  ZINC000547864253   -0.1600
      8 C8         -1.3187    2.2369   55.1361 C.2     1  ZINC000547864253    0.0600
      9 N9         -2.5923    1.8613   55.4666 N.pl3   1  ZINC000547864253   -0.5900
     10 C10        -3.5013    2.6642   54.8145 C.ar    1  ZINC000547864253    0.1000
     11 C11        -4.8910    2.7154   54.7925 C.ar    1  ZINC000547864253   -0.1300
     12 C12        -5.5288    3.6600   54.0183 C.ar    1  ZINC000547864253   -0.1000
     13 C13        -4.7983    4.5630   53.2587 C.ar    1  ZINC000547864253   -0.1400
     14 C14        -3.4321    4.5307   53.2655 C.ar    1  ZINC000547864253   -0.0700
     15 C15        -2.7653    3.5860   54.0476 C.ar    1  ZINC000547864253   -0.1000
     16 C16         0.9077    4.1339   54.7225 C.ar    1  ZINC000547864253   -0.0700
     17 C17         1.0399    5.3305   55.4018 C.ar    1  ZINC000547864253   -0.1100
     18 C18         2.0251    5.4757   56.3606 C.ar    1  ZINC000547864253   -0.1200
     19 C19         2.8778    4.4242   56.6403 C.ar    1  ZINC000547864253   -0.1200
     20 C20         2.7449    3.2273   55.9616 C.ar    1  ZINC000547864253   -0.1100
     21 C21         1.7569    3.0807   55.0059 C.ar    1  ZINC000547864253   -0.1200
     22 C22        -1.0019    3.6069   48.9662 C.3     1  ZINC000547864253   -0.1700
     23 H23        -1.1842    4.6168   48.5988 H       1  ZINC000547864253    0.1400
     24 C24        -2.1621    2.6118   48.9027 C.3     1  ZINC000547864253   -0.1300
     25 C25        -0.9812    2.4732   47.9373 C.3     1  ZINC000547864253   -0.1400
     26 C26        -1.2209    2.8480   46.4742 C.3     1  ZINC000547864253   -0.0700
     27 C27        -1.8981    1.6840   45.7476 C.3     1  ZINC000547864253   -0.6000
     28 S28        -0.8138    0.2291   45.8102 S.o2    1  ZINC000547864253    2.4200
     29 O29        -1.5318   -0.8938   45.3173 O.2     1  ZINC000547864253   -0.9400
     30 O30         0.4348    0.5679   45.2225 O.2     1  ZINC000547864253   -0.9300
     31 C31        -0.5788    0.0274   47.5992 C.3     1  ZINC000547864253   -0.6000
     32 C32        -0.0050    1.3215   48.1806 C.3     1  ZINC000547864253   -0.0700
     33 H33        -1.4944    3.1435   51.5055 H       1  ZINC000547864253    0.4000
     34 H34         0.4669    2.1082   52.8099 H       1  ZINC000547864253    0.0800
     35 H35         1.3571    3.5322   52.2201 H       1  ZINC000547864253    0.0700
     36 H36        -0.4185    1.7708   55.5086 H       1  ZINC000547864253    0.1700
     37 H37        -2.8208    1.1372   56.0703 H       1  ZINC000547864253    0.4200
     38 H38        -5.4683    2.0167   55.3799 H       1  ZINC000547864253    0.1200
     39 H39        -6.6080    3.6979   54.0022 H       1  ZINC000547864253    0.1300
     40 H40        -5.3138    5.2971   52.6570 H       1  ZINC000547864253    0.1200
     41 H41        -2.8703    5.2366   52.6718 H       1  ZINC000547864253    0.1200
     42 H42         0.3738    6.1521   55.1832 H       1  ZINC000547864253    0.1200
     43 H43         2.1289    6.4109   56.8909 H       1  ZINC000547864253    0.1200
     44 H44         3.6479    4.5379   57.3889 H       1  ZINC000547864253    0.1200
     45 H45         3.4112    2.4059   56.1799 H       1  ZINC000547864253    0.1200
     46 H46         1.6531    2.1456   54.4756 H       1  ZINC000547864253    0.1200
     47 H47        -2.2430    1.8810   49.7073 H       1  ZINC000547864253    0.1100
     48 H48        -3.1078    2.9670   48.4932 H       1  ZINC000547864253    0.1100
     49 H49        -1.8622    3.7282   46.4256 H       1  ZINC000547864253    0.0900
     50 H50        -0.2669    3.0686   45.9954 H       1  ZINC000547864253    0.0900
     51 H51        -2.8457    1.4530   46.2341 H       1  ZINC000547864253    0.1400
     52 H52        -2.0788    1.9590   44.7085 H       1  ZINC000547864253    0.1400
     53 H53        -1.5374   -0.1898   48.0702 H       1  ZINC000547864253    0.1400
     54 H54         0.1136   -0.7937   47.7853 H       1  ZINC000547864253    0.1400
     55 H55         0.9467    1.5448   47.6985 H       1  ZINC000547864253    0.0900
     56 H56         0.1518    1.1992   49.2522 H       1  ZINC000547864253    0.0900
@<TRIPOS>BOND
     1     1     2    2
     2     2     3   am
     3     2    22    1
     4     3     4    1
     5     3    33    1
     6     4     5    1
     7     4    34    1
     8     4    35    1
     9     5     6    1
    10     5     7    1
    11     5    16    1
    12     7    15    1
    13     7     8    2
    14     8     9    1
    15     8    36    1
    16     9    10    1
    17     9    37    1
    18    10    15   ar
    19    10    11   ar
    20    11    12   ar
    21    11    38    1
    22    12    13   ar
    23    12    39    1
    24    13    14   ar
    25    13    40    1
    26    14    15   ar
    27    14    41    1
    28    16    21   ar
    29    16    17   ar
    30    17    18   ar
    31    17    42    1
    32    18    19   ar
    33    18    43    1
    34    19    20   ar
    35    19    44    1
    36    20    21   ar
    37    20    45    1
    38    21    46    1
    39    22    23    1
    40    22    25    1
    41    22    24    1
    42    24    25    1
    43    24    47    1
    44    24    48    1
    45    25    32    1
    46    25    26    1
    47    26    27    1
    48    26    49    1
    49    26    50    1
    50    27    28    1
    51    27    51    1
    52    27    52    1
    53    28    29    2
    54    28    30    2
    55    28    31    1
    56    31    32    1
    57    31    53    1
    58    31    54    1
    59    32    55    1
    60    32    56    1
@<TRIPOS>SUBSTRUCTURE
     1 ZINC000547864253        1 TEMP              0 ****  ****    0 ROOT


##########                                Name:    ZINC000429196987
##########                DOCK_Rotatable_Bonds:                   7
##########                         Heavy_Atoms:                  28
##########                    Molecular_Weight:             403.505
##########                DOCK_Rotatable_Bonds:                   7
##########                       Formal_Charge:          -0.0399997
##########                     HBond_Acceptors:                   9
##########                        HBond_Donors:                   1
##########                         Heavy_Atoms:                  28
##########                          Grid_Score:          -33.774025
##########                     Grid_vdw_energy:          -33.662743
##########                      Grid_es_energy:           -0.111284
##########           Internal_energy_repulsive:           12.621706

@<TRIPOS>MOLECULE
ZINC000429196987
 53 55 1 0 0
SMALL
USER_CHARGES


@<TRIPOS>ATOM
      1 C1         -3.5016    3.2288   51.8400 C.3     1  ZINC000429196987    0.0800
      2 N2         -2.4013    3.4668   50.9025 N.am    1  ZINC000429196987   -0.6300
      3 C3         -1.4440    4.5465   51.1555 C.3     1  ZINC000429196987    0.1600
      4 C4         -0.3552    4.0484   52.0705 C.ar    1  ZINC000429196987   -0.0600
      5 C5         -0.5635    4.0113   53.4366 C.ar    1  ZINC000429196987   -0.1300
      6 C6          0.4354    3.5543   54.2759 C.ar    1  ZINC000429196987   -0.0300
      7 C7          1.6423    3.1340   53.7491 C.ar    1  ZINC000429196987   -0.6600
      8 S8          2.9156    2.5519   54.8190 S.o2    1  ZINC000429196987    2.5000
      9 C9          2.2074    1.0790   55.6062 C.3     1  ZINC000429196987   -0.6500
     10 O10         3.9722    2.1888   53.9411 O.2     1  ZINC000429196987   -0.9400
     11 O11         3.0789    3.5955   55.7696 O.2     1  ZINC000429196987   -0.9400
     12 C12         1.8500    3.1697   52.3830 C.ar    1  ZINC000429196987   -0.0300
     13 C13         0.8499    3.6231   51.5433 C.ar    1  ZINC000429196987   -0.1100
     14 C14        -2.2696    2.6925   49.8073 C.2     1  ZINC000429196987    0.7100
     15 O15        -3.0649    1.7974   49.5965 O.2     1  ZINC000429196987   -0.5800
     16 N16        -1.2564    2.9104   48.9457 N.am    1  ZINC000429196987   -0.7400
     17 C17        -1.1123    2.0676   47.7561 C.3     1  ZINC000429196987    0.1600
     18 C18        -1.6546    2.8119   46.5328 C.3     1  ZINC000429196987   -0.1300
     19 C19        -1.4459    1.9516   45.2844 C.3     1  ZINC000429196987    0.0700
     20 N20        -0.0143    1.6721   45.1148 N.3     1  ZINC000429196987   -0.4700
     21 C21         0.2246    1.0034   43.9192 C.ar    1  ZINC000429196987    0.2500
     22 C22         1.4924    1.0359   43.3396 C.ar    1  ZINC000429196987   -0.1300
     23 C23         1.6785    0.3533   42.1478 C.ar    1  ZINC000429196987   -0.1000
     24 C24         0.5931   -0.3199   41.6051 C.ar    1  ZINC000429196987    0.0200
     25 N25        -0.5719   -0.2978   42.2216 N.ar    1  ZINC000429196987   -0.2200
     26 N26        -0.7501    0.3276   43.3282 N.ar    1  ZINC000429196987   -0.2800
     27 C27         0.5180    0.9165   46.2558 C.3     1  ZINC000429196987    0.0600
     28 C28         0.3680    1.7458   47.5332 C.3     1  ZINC000429196987   -0.1200
     29 H29        -4.3675    3.8199   51.5415 H       1  ZINC000429196987    0.0600
     30 H30        -3.7636    2.1708   51.8316 H       1  ZINC000429196987    0.0700
     31 H31        -3.1925    3.5187   52.8442 H       1  ZINC000429196987    0.0800
     32 H32        -1.0054    4.8718   50.2122 H       1  ZINC000429196987    0.1000
     33 H33        -1.9579    5.3851   51.6254 H       1  ZINC000429196987    0.0900
     34 H34        -1.5065    4.3397   53.8481 H       1  ZINC000429196987    0.1300
     35 H35         0.2729    3.5259   55.3432 H       1  ZINC000429196987    0.1400
     36 H36         1.9517    0.3457   54.8413 H       1  ZINC000429196987    0.1300
     37 H37         2.9358    0.6485   56.2933 H       1  ZINC000429196987    0.1300
     38 H38         1.3090    1.3578   56.1569 H       1  ZINC000429196987    0.1300
     39 H39         2.7929    2.8409   51.9713 H       1  ZINC000429196987    0.1400
     40 H40         1.0123    3.6510   50.4760 H       1  ZINC000429196987    0.1400
     41 H41        -0.6225    3.6254   49.1132 H       1  ZINC000429196987    0.4000
     42 H42        -1.6693    1.1411   47.8965 H       1  ZINC000429196987    0.0900
     43 H43        -2.7187    3.0062   46.6673 H       1  ZINC000429196987    0.0800
     44 H44        -1.1234    3.7566   46.4167 H       1  ZINC000429196987    0.0700
     45 H45        -1.9886    1.0129   45.3954 H       1  ZINC000429196987    0.0600
     46 H46        -1.8180    2.4848   44.4096 H       1  ZINC000429196987    0.0900
     47 H47         2.3036    1.5764   43.8044 H       1  ZINC000429196987    0.1500
     48 H48         2.6399    0.3458   41.6558 H       1  ZINC000429196987    0.1500
     49 H49         0.7028   -0.8618   40.6773 H       1  ZINC000429196987    0.1700
     50 H50        -0.0338   -0.0174   46.3622 H       1  ZINC000429196987    0.0500
     51 H51         1.5724    0.6978   46.0866 H       1  ZINC000429196987    0.0900
     52 H52         0.9310    2.6738   47.4329 H       1  ZINC000429196987    0.0800
     53 H53         0.7490    1.1784   48.3824 H       1  ZINC000429196987    0.0800
@<TRIPOS>BOND
     1     1     2    1
     2     1    29    1
     3     1    30    1
     4     1    31    1
     5     2     3    1
     6     2    14   am
     7     3     4    1
     8     3    32    1
     9     3    33    1
    10     4    13   ar
    11     4     5   ar
    12     5     6   ar
    13     5    34    1
    14     6     7   ar
    15     6    35    1
    16     7     8    1
    17     7    12   ar
    18     8     9    1
    19     8    10    2
    20     8    11    2
    21     9    36    1
    22     9    37    1
    23     9    38    1
    24    12    13   ar
    25    12    39    1
    26    13    40    1
    27    14    15    2
    28    14    16   am
    29    16    17    1
    30    16    41    1
    31    17    28    1
    32    17    18    1
    33    17    42    1
    34    18    19    1
    35    18    43    1
    36    18    44    1
    37    19    20    1
    38    19    45    1
    39    19    46    1
    40    20    21    1
    41    20    27    1
    42    21    26   ar
    43    21    22   ar
    44    22    23   ar
    45    22    47    1
    46    23    24   ar
    47    23    48    1
    48    24    25   ar
    49    24    49    1
    50    25    26   ar
    51    27    28    1
    52    27    50    1
    53    27    51    1
    54    28    52    1
    55    28    53    1
@<TRIPOS>SUBSTRUCTURE
     1 ZINC000429196987        1 TEMP              0 ****  ****    0 ROOT


##########                                Name:    ZINC000981700465
##########                DOCK_Rotatable_Bonds:                   9
##########                         Heavy_Atoms:                  26
##########                    Molecular_Weight:             356.428
##########                DOCK_Rotatable_Bonds:                   9
##########                       Formal_Charge:               -0.01
##########                     HBond_Acceptors:                   8
##########                        HBond_Donors:                   3
##########                         Heavy_Atoms:                  26
##########                          Grid_Score:          -33.771698
##########                     Grid_vdw_energy:          -32.667152
##########                      Grid_es_energy:           -1.104544
##########           Internal_energy_repulsive:           13.877870

@<TRIPOS>MOLECULE
ZINC000981700465
 50 52 1 0 0
SMALL
USER_CHARGES


@<TRIPOS>ATOM
      1 C1         -7.9487   -0.1727   59.3972 C.3     1  ZINC000981700465   -0.1500
      2 C2         -7.8130    1.3126   59.7390 C.3     1  ZINC000981700465   -0.1100
      3 C3         -6.8442    1.9753   58.7576 C.3     1  ZINC000981700465   -0.0500
      4 C4         -7.4975    2.0858   57.4041 C.2     1  ZINC000981700465    0.1400
      5 N5         -8.7738    1.9763   57.1576 N.2     1  ZINC000981700465   -0.2900
      6 N6         -8.9858    2.1390   55.7841 N.pl3   1  ZINC000981700465   -0.4600
      7 C7         -7.7996    2.3523   55.1925 C.2     1  ZINC000981700465    0.1000
      8 C8         -6.8357    2.3324   56.1804 C.2     1  ZINC000981700465   -0.2900
      9 C9         -5.3858    2.5227   55.9925 C.2     1  ZINC000981700465    0.5900
     10 O10        -4.6349    2.4542   56.9464 O.2     1  ZINC000981700465   -0.5300
     11 N11        -4.8927    2.7725   54.7632 N.am    1  ZINC000981700465   -0.7300
     12 C12        -3.4522    2.9632   54.5768 C.3     1  ZINC000981700465    0.1300
     13 C13        -3.2129    3.9805   53.4593 C.3     1  ZINC000981700465   -0.1100
     14 H14        -3.5185    4.9765   53.7796 H       1  ZINC000981700465    0.0900
     15 C15        -1.7229    3.9804   53.0360 C.3     1  ZINC000981700465   -0.1200
     16 C16        -1.7774    4.5423   51.5937 C.3     1  ZINC000981700465   -0.1300
     17 C17        -3.0567    3.9229   50.9943 C.3     1  ZINC000981700465    0.1400
     18 H18        -3.5527    4.6450   50.3457 H       1  ZINC000981700465    0.1000
     19 N19        -2.7218    2.7150   50.2361 N.am    1  ZINC000981700465   -0.7100
     20 C20        -2.2404    2.8188   48.9814 C.2     1  ZINC000981700465    0.5600
     21 O21        -2.0857    3.9142   48.4787 O.2     1  ZINC000981700465   -0.5200
     22 C22        -1.9000    1.5975   48.2154 C.ar    1  ZINC000981700465   -0.1400
     23 C23        -1.5328    1.6678   46.8654 C.ar    1  ZINC000981700465   -0.0600
     24 C24        -1.2280    0.4827   46.2157 C.ar    1  ZINC000981700465    0.0400
     25 N25        -1.2891   -0.6613   46.8689 N.ar    1  ZINC000981700465   -0.2200
     26 N26        -1.6246   -0.7326   48.1050 N.ar    1  ZINC000981700465   -0.2400
     27 C27        -1.9286    0.3358   48.8161 C.ar    1  ZINC000981700465    0.0700
     28 C28        -3.9724    3.5675   52.1815 C.3     1  ZINC000981700465   -0.1200
     29 H29        -6.9728   -0.6528   59.4698 H       1  ZINC000981700465    0.0600
     30 H30        -8.6388   -0.6447   60.0963 H       1  ZINC000981700465    0.0600
     31 H31        -8.3309   -0.2784   58.3819 H       1  ZINC000981700465    0.0500
     32 H32        -8.7889    1.7927   59.6662 H       1  ZINC000981700465    0.0600
     33 H33        -7.4307    1.4183   60.7542 H       1  ZINC000981700465    0.0600
     34 H34        -6.5856    2.9707   59.1186 H       1  ZINC000981700465    0.1000
     35 H35        -5.9400    1.3720   58.6763 H       1  ZINC000981700465    0.0800
     36 H36        -9.8449    2.1038   55.3351 H       1  ZINC000981700465    0.4500
     37 H37        -7.6311    2.5140   54.1381 H       1  ZINC000981700465    0.1800
     38 H38        -5.4915    2.8259   54.0021 H       1  ZINC000981700465    0.4000
     39 H39        -3.0114    3.3309   55.5034 H       1  ZINC000981700465    0.0700
     40 H40        -2.9916    2.0127   54.3076 H       1  ZINC000981700465    0.0700
     41 H41        -1.1376    4.6334   53.6832 H       1  ZINC000981700465    0.0700
     42 H42        -1.3201    2.9676   53.0411 H       1  ZINC000981700465    0.0700
     43 H43        -1.8517    5.6296   51.6105 H       1  ZINC000981700465    0.0800
     44 H44        -0.9001    4.2276   51.0283 H       1  ZINC000981700465    0.0700
     45 H45        -2.8463    1.8406   50.6369 H       1  ZINC000981700465    0.4000
     46 H46        -1.4891    2.6148   46.3480 H       1  ZINC000981700465    0.1700
     47 H47        -0.9408    0.4957   45.1746 H       1  ZINC000981700465    0.1800
     48 H48        -2.2061    0.2355   49.8549 H       1  ZINC000981700465    0.1700
     49 H49        -4.1670    2.4952   52.1950 H       1  ZINC000981700465    0.0800
     50 H50        -4.9108    4.1169   52.1068 H       1  ZINC000981700465    0.0800
@<TRIPOS>BOND
     1     1     2    1
     2     1    29    1
     3     1    30    1
     4     1    31    1
     5     2     3    1
     6     2    32    1
     7     2    33    1
     8     3     4    1
     9     3    34    1
    10     3    35    1
    11     4     8    1
    12     4     5    2
    13     5     6    1
    14     6     7    1
    15     6    36    1
    16     7     8    2
    17     7    37    1
    18     8     9    1
    19     9    10    2
    20     9    11   am
    21    11    12    1
    22    11    38    1
    23    12    13    1
    24    12    39    1
    25    12    40    1
    26    13    14    1
    27    13    28    1
    28    13    15    1
    29    15    16    1
    30    15    41    1
    31    15    42    1
    32    16    17    1
    33    16    43    1
    34    16    44    1
    35    17    18    1
    36    17    19    1
    37    17    28    1
    38    19    20   am
    39    19    45    1
    40    20    21    2
    41    20    22    1
    42    22    27   ar
    43    22    23   ar
    44    23    24   ar
    45    23    46    1
    46    24    25   ar
    47    24    47    1
    48    25    26   ar
    49    26    27   ar
    50    27    48    1
    51    28    49    1
    52    28    50    1
@<TRIPOS>SUBSTRUCTURE
     1 ZINC000981700465        1 TEMP              0 ****  ****    0 ROOT


##########                                Name:    ZINC000342525234
##########                DOCK_Rotatable_Bonds:                   6
##########                         Heavy_Atoms:                  25
##########                    Molecular_Weight:             333.349
##########                DOCK_Rotatable_Bonds:                   6
##########                       Formal_Charge:           0.0500003
##########                     HBond_Acceptors:                   7
##########                        HBond_Donors:                   2
##########                         Heavy_Atoms:                  25
##########                          Grid_Score:          -33.756096
##########                     Grid_vdw_energy:          -29.455927
##########                      Grid_es_energy:           -4.300169
##########           Internal_energy_repulsive:            4.539632

@<TRIPOS>MOLECULE
ZINC000342525234
 40 43 1 0 0
SMALL
USER_CHARGES


@<TRIPOS>ATOM
      1 O1         -2.9203    1.8647   47.7334 O.2     1  <0>        -0.5100
      2 C2         -2.2700    2.8512   48.0163 C.2     1  <0>         0.6000
      3 N3         -1.4110    3.3724   47.1180 N.am    1  <0>        -0.7100
      4 C4         -1.2570    2.7459   45.8027 C.3     1  <0>         0.1200
      5 C5         -0.4203    1.4722   45.9393 C.3     1  <0>        -0.0900
      6 C6          0.2632    1.1773   44.6290 C.ar    1  <0>        -0.0400
      7 C7         -0.3002    0.2842   43.7777 C.ar    1  <0>        -0.1000
      8 C8          0.3310    0.0000   42.5475 C.ar    1  <0>         0.1100
      9 N9          0.0594   -0.7909   41.5254 N.2     1  <0>        -0.3100
     10 N10         1.0677   -0.6546   40.5644 N.pl3   1  <0>        -0.4200
     11 C11         1.9828    0.2296   40.9840 C.2     1  <0>         0.0900
     12 C12         1.5910    0.6890   42.2277 C.ar    1  <0>        -0.2100
     13 C13         2.1195    1.6061   43.1612 C.ar    1  <0>        -0.0400
     14 C14         1.4564    1.8353   44.3223 C.ar    1  <0>        -0.1500
     15 C15        -2.4259    3.4856   49.3481 C.2     1  <0>        -0.0200
     16 N16        -1.8000    4.5488   49.7903 N.2     1  <0>        -0.3200
     17 O17        -2.1353    4.8299   50.9171 O.3     1  <0>         0.1400
     18 C18        -3.0540    3.9709   51.3926 C.2     1  <0>         0.0100
     19 C19        -3.6903    4.0029   52.7273 C.ar    1  <0>         0.0200
     20 C20        -3.3659    4.9994   53.6550 C.ar    1  <0>        -0.1400
     21 C21        -3.9840    4.9916   54.8884 C.ar    1  <0>         0.1100
     22 N22        -4.8681    4.0624   55.1973 N.ar    1  <0>        -0.4800
     23 C23        -5.2024    3.1056   54.3528 C.ar    1  <0>         0.1100
     24 C24        -4.6376    3.0409   53.0957 C.ar    1  <0>        -0.1500
     25 C25        -3.2876    3.0659   50.3955 C.2     1  <0>        -0.1500
     26 H26        -0.8947    4.1623   47.3425 H       1  <0>         0.4100
     27 H27        -2.2392    2.4943   45.4029 H       1  <0>         0.0800
     28 H28        -0.7561    3.4388   45.1267 H       1  <0>         0.0800
     29 H29         0.3302    1.6122   46.7172 H       1  <0>         0.0900
     30 H30        -1.0693    0.6381   46.2064 H       1  <0>         0.0800
     31 H31        -1.2258   -0.2066   44.0395 H       1  <0>         0.1300
     32 H32         1.0996   -1.1302   39.7196 H       1  <0>         0.4500
     33 H33         2.8697    0.5300   40.4460 H       1  <0>         0.1900
     34 H34         3.0429    2.1252   42.9507 H       1  <0>         0.1300
     35 H35         1.8665    2.5387   45.0319 H       1  <0>         0.1200
     36 H36        -2.6426    5.7628   53.4091 H       1  <0>         0.1400
     37 H37        -3.7405    5.7563   55.6111 H       1  <0>         0.1700
     38 H38        -5.9311    2.3652   54.6482 H       1  <0>         0.1700
     39 H39        -4.9161    2.2547   52.4095 H       1  <0>         0.1500
     40 H40        -3.9645    2.2244   50.4045 H       1  <0>         0.1900
@<TRIPOS>BOND
     1     1     2    2
     2     2     3   am
     3     2    15    1
     4     3     4    1
     5     3    26    1
     6     4     5    1
     7     4    27    1
     8     4    28    1
     9     5     6    1
    10     5    29    1
    11     5    30    1
    12     6    14   ar
    13     6     7   ar
    14     7     8   ar
    15     7    31    1
    16     8    12   ar
    17     8     9    2
    18     9    10    1
    19    10    11    1
    20    10    32    1
    21    11    12    2
    22    11    33    1
    23    12    13   ar
    24    13    14   ar
    25    13    34    1
    26    14    35    1
    27    15    25    1
    28    15    16    2
    29    16    17    1
    30    17    18    1
    31    18    19    1
    32    18    25    2
    33    19    24   ar
    34    19    20   ar
    35    20    21   ar
    36    20    36    1
    37    21    22   ar
    38    21    37    1
    39    22    23   ar
    40    23    24   ar
    41    23    38    1
    42    24    39    1
    43    25    40    1
@<TRIPOS>SUBSTRUCTURE
     1 <0>         1 TEMP              0 ****  ****    0 ROOT


##########                                Name:    ZINC000460972051
##########                DOCK_Rotatable_Bonds:                  10
##########                         Heavy_Atoms:                  29
##########                    Molecular_Weight:             417.572
##########                DOCK_Rotatable_Bonds:                  10
##########                       Formal_Charge:         3.31551e-07
##########                     HBond_Acceptors:                   7
##########                        HBond_Donors:                   2
##########                         Heavy_Atoms:                  29
##########                          Grid_Score:          -33.752857
##########                     Grid_vdw_energy:          -33.846447
##########                      Grid_es_energy:            0.093589
##########           Internal_energy_repulsive:           34.558838

@<TRIPOS>MOLECULE
ZINC000460972051
 60 61 1 0 0
SMALL
USER_CHARGES


@<TRIPOS>ATOM
      1 C1         -3.9777    3.6485   52.7697 C.3     1  ZINC000460972051   -0.1800
      2 C2         -2.9937    4.5159   51.9820 C.3     1  ZINC000460972051    0.1000
      3 N3         -1.9136    3.6761   51.4581 N.am    1  ZINC000460972051   -0.6200
      4 C4         -2.0952    2.9768   50.3204 C.2     1  ZINC000460972051    0.7100
      5 O5         -3.1560    3.0416   49.7297 O.2     1  ZINC000460972051   -0.5800
      6 N6         -1.1010    2.2055   49.8375 N.am    1  ZINC000460972051   -0.7400
      7 C7         -1.2978    1.4466   48.5999 C.3     1  ZINC000460972051    0.2000
      8 H8         -2.3369    1.1243   48.5327 H       1  ZINC000460972051    0.1100
      9 C9         -0.9599    2.3326   47.3992 C.3     1  ZINC000460972051    0.1100
     10 N10        -1.4512    1.7003   46.1723 N.am    1  ZINC000460972051   -1.1200
     11 S11        -0.3810    1.2112   45.0071 S.o2    1  ZINC000460972051    2.7000
     12 O12         0.5654    0.3742   45.6575 O.2     1  ZINC000460972051   -0.9500
     13 O13        -1.1616    0.7863   43.8983 O.2     1  ZINC000460972051   -0.9600
     14 C14         0.5012    2.6409   44.4759 C.ar    1  ZINC000460972051   -0.6900
     15 C15         0.0267    3.9010   44.7871 C.ar    1  ZINC000460972051   -0.0100
     16 C16         0.7190    5.0228   44.3702 C.ar    1  ZINC000460972051   -0.1500
     17 C17         1.8859    4.8840   43.6426 C.ar    1  ZINC000460972051   -0.0200
     18 C18         2.6403    6.1068   43.1878 C.3     1  ZINC000460972051   -0.1300
     19 C19         2.3614    3.6234   43.3325 C.ar    1  ZINC000460972051   -0.1500
     20 C20         1.6713    2.5019   43.7525 C.ar    1  ZINC000460972051    0.0300
     21 C21         2.1895    1.1278   43.4145 C.3     1  ZINC000460972051   -0.1700
     22 C22        -0.3964    0.2389   48.6025 C.ar    1  ZINC000460972051   -0.1000
     23 C23        -0.9300   -1.0221   48.4121 C.ar    1  ZINC000460972051   -0.1000
     24 C24        -0.1032   -2.1300   48.4145 C.ar    1  ZINC000460972051   -0.1200
     25 C25         1.2571   -1.9769   48.6067 C.ar    1  ZINC000460972051   -0.1200
     26 C26         1.7908   -0.7158   48.7962 C.ar    1  ZINC000460972051   -0.1200
     27 C27         0.9645    0.3925   48.7896 C.ar    1  ZINC000460972051   -0.1000
     28 C28        -0.6362    3.5966   52.1708 C.3     1  ZINC000460972051    0.1500
     29 C29         0.3589    4.5760   51.5451 C.3     1  ZINC000460972051   -0.1600
     30 C30        -0.8498    3.9571   53.6424 C.3     1  ZINC000460972051   -0.1600
     31 H31        -4.7813    4.2733   53.1594 H       1  ZINC000460972051    0.0700
     32 H32        -4.3963    2.8861   52.1127 H       1  ZINC000460972051    0.0600
     33 H33        -3.4565    3.1684   53.5977 H       1  ZINC000460972051    0.0700
     34 H34        -3.5149    4.9962   51.1538 H       1  ZINC000460972051    0.0700
     35 H35        -2.5750    5.2784   52.6389 H       1  ZINC000460972051    0.0900
     36 H36        -0.2552    2.1528   50.3095 H       1  ZINC000460972051    0.4000
     37 H37        -1.4344    3.3063   47.5212 H       1  ZINC000460972051    0.0900
     38 H38         0.1206    2.4603   47.3345 H       1  ZINC000460972051    0.0900
     39 H39        -2.4034    1.5682   46.0425 H       1  ZINC000460972051    0.4200
     40 H40        -0.8852    4.0095   45.3555 H       1  ZINC000460972051    0.1400
     41 H41         0.3478    6.0076   44.6127 H       1  ZINC000460972051    0.1300
     42 H42         3.3650    6.3913   43.9508 H       1  ZINC000460972051    0.0800
     43 H43         3.1612    5.8866   42.2560 H       1  ZINC000460972051    0.0700
     44 H44         1.9404    6.9268   43.0277 H       1  ZINC000460972051    0.0700
     45 H45         3.2734    3.5149   42.7644 H       1  ZINC000460972051    0.1300
     46 H46         2.7715    0.7429   44.2519 H       1  ZINC000460972051    0.0900
     47 H47         1.3500    0.4609   43.2185 H       1  ZINC000460972051    0.1000
     48 H48         2.8221    1.1857   42.5287 H       1  ZINC000460972051    0.0900
     49 H49        -1.9927   -1.1417   48.2619 H       1  ZINC000460972051    0.1200
     50 H50        -0.5202   -3.1152   48.2666 H       1  ZINC000460972051    0.1200
     51 H51         1.9030   -2.8425   48.6093 H       1  ZINC000460972051    0.1200
     52 H52         2.8535   -0.5962   48.9468 H       1  ZINC000460972051    0.1200
     53 H53         1.3815    1.3777   48.9376 H       1  ZINC000460972051    0.1200
     54 H54        -0.2423    2.5828   52.0986 H       1  ZINC000460972051    0.1000
     55 H55         0.5111    4.3193   50.4968 H       1  ZINC000460972051    0.0600
     56 H56        -0.0349    5.5898   51.6173 H       1  ZINC000460972051    0.0600
     57 H57         1.3093    4.5169   52.0754 H       1  ZINC000460972051    0.0700
     58 H58        -1.5587    3.2594   54.0881 H       1  ZINC000460972051    0.0600
     59 H59         0.1006    3.8979   54.1726 H       1  ZINC000460972051    0.0700
     60 H60        -1.2435    4.9709   53.7145 H       1  ZINC000460972051    0.0600
@<TRIPOS>BOND
     1     1     2    1
     2     1    31    1
     3     1    32    1
     4     1    33    1
     5     2     3    1
     6     2    34    1
     7     2    35    1
     8     3     4   am
     9     3    28    1
    10     4     5    2
    11     4     6   am
    12     6     7    1
    13     6    36    1
    14     7     8    1
    15     7     9    1
    16     7    22    1
    17     9    10    1
    18     9    37    1
    19     9    38    1
    20    10    11   am
    21    10    39    1
    22    11    12    2
    23    11    13    2
    24    11    14    1
    25    14    20   ar
    26    14    15   ar
    27    15    16   ar
    28    15    40    1
    29    16    17   ar
    30    16    41    1
    31    17    18    1
    32    17    19   ar
    33    18    42    1
    34    18    43    1
    35    18    44    1
    36    19    20   ar
    37    19    45    1
    38    20    21    1
    39    21    46    1
    40    21    47    1
    41    21    48    1
    42    22    27   ar
    43    22    23   ar
    44    23    24   ar
    45    23    49    1
    46    24    25   ar
    47    24    50    1
    48    25    26   ar
    49    25    51    1
    50    26    27   ar
    51    26    52    1
    52    27    53    1
    53    28    29    1
    54    28    30    1
    55    28    54    1
    56    29    55    1
    57    29    56    1
    58    29    57    1
    59    30    58    1
    60    30    59    1
    61    30    60    1
@<TRIPOS>SUBSTRUCTURE
     1 ZINC000460972051        1 TEMP              0 ****  ****    0 ROOT


##########                                Name:    ZINC000505965769
##########                DOCK_Rotatable_Bonds:                   9
##########                         Heavy_Atoms:                  29
##########                    Molecular_Weight:              419.88
##########                DOCK_Rotatable_Bonds:                   9
##########                       Formal_Charge:               -0.02
##########                     HBond_Acceptors:                   7
##########                        HBond_Donors:                   1
##########                         Heavy_Atoms:                  29
##########                          Grid_Score:          -33.747414
##########                     Grid_vdw_energy:          -32.796055
##########                      Grid_es_energy:           -0.951360
##########           Internal_energy_repulsive:            8.717808

@<TRIPOS>MOLECULE
ZINC000505965769
 52 54 1 0 0
SMALL
USER_CHARGES


@<TRIPOS>ATOM
      1 C1         -0.6983    0.4276   44.6523 C.3     1  ZINC000505965769    0.0200
      2 O2         -1.8012    1.2602   45.0165 O.3     1  ZINC000505965769   -0.3100
      3 C3         -1.6814    1.9741   46.1639 C.ar    1  ZINC000505965769    0.1800
      4 C4         -1.8662    1.3477   47.3920 C.ar    1  ZINC000505965769   -0.2200
      5 C5         -1.7472    2.0583   48.5522 C.ar    1  ZINC000505965769   -0.0200
      6 C6         -1.4381    3.4235   48.5093 C.ar    1  ZINC000505965769   -0.2100
      7 C7         -1.3092    4.1891   49.7547 C.2     1  ZINC000505965769    0.3900
      8 O8         -0.2681    4.1644   50.3769 O.2     1  ZINC000505965769   -0.4400
      9 C9         -2.4700    5.0062   50.2606 C.3     1  ZINC000505965769   -0.1500
     10 C10        -3.3100    4.1598   51.2192 C.3     1  ZINC000505965769   -0.1300
     11 C11        -2.8636    4.4135   52.6361 C.2     1  ZINC000505965769    0.5200
     12 O12        -3.1358    5.4633   53.1789 O.2     1  ZINC000505965769   -0.5300
     13 N13        -2.1618    3.4736   53.2999 N.am    1  ZINC000505965769   -0.7200
     14 C14        -1.7294    3.7195   54.6778 C.3     1  ZINC000505965769    0.1900
     15 H15        -1.3426    4.7351   54.7616 H       1  ZINC000505965769    0.1100
     16 C16        -2.9015    3.5500   55.6099 C.ar    1  ZINC000505965769   -0.1000
     17 C17        -3.4245    2.2912   55.8401 C.ar    1  ZINC000505965769   -0.0900
     18 C18        -4.4992    2.1346   56.6946 C.ar    1  ZINC000505965769   -0.1500
     19 C19        -5.0519    3.2389   57.3207 C.ar    1  ZINC000505965769    0.1000
     20 F20        -6.1023    3.0870   58.1566 F       1  ZINC000505965769   -0.1400
     21 C21        -4.5269    4.4993   57.0898 C.ar    1  ZINC000505965769   -0.1500
     22 C22        -3.4490    4.6528   56.2386 C.ar    1  ZINC000505965769   -0.0600
     23 C23        -0.6310    2.7228   55.0533 C.3     1  ZINC000505965769    0.0800
     24 H24        -0.9647    1.7030   54.8615 H       1  ZINC000505965769    0.0700
     25 C25         0.6635    3.0238   54.2567 C.3     1  ZINC000505965769   -0.1500
     26 C26         1.7370    2.4078   55.1950 C.3     1  ZINC000505965769   -0.1600
     27 C27         1.1422    2.6766   56.5941 C.3     1  ZINC000505965769    0.0500
     28 O28        -0.2684    2.8773   56.4347 O.3     1  ZINC000505965769   -0.3700
     29 C29        -1.2516    4.0560   47.2718 C.ar    1  ZINC000505965769    0.0500
     30 Cl30       -0.8681    5.7477   47.2065 Cl      1  ZINC000505965769   -0.0200
     31 C31        -1.3690    3.3277   46.1078 C.ar    1  ZINC000505965769   -0.1600
     32 H32        -0.5232   -0.3077   45.4377 H       1  ZINC000505965769    0.0600
     33 H33        -0.9238   -0.0859   43.7177 H       1  ZINC000505965769    0.1100
     34 H34         0.1933    1.0413   44.5238 H       1  ZINC000505965769    0.0600
     35 H35        -2.1050    0.2951   47.4282 H       1  ZINC000505965769    0.1400
     36 H36        -1.8920    1.5672   49.5032 H       1  ZINC000505965769    0.1500
     37 H37        -2.0947    5.8848   50.7853 H       1  ZINC000505965769    0.1100
     38 H38        -3.0866    5.3214   49.4188 H       1  ZINC000505965769    0.1100
     39 H39        -4.3612    4.4291   51.1157 H       1  ZINC000505965769    0.1000
     40 H40        -3.1803    3.1041   50.9809 H       1  ZINC000505965769    0.1000
     41 H41        -1.9432    2.6344   52.8653 H       1  ZINC000505965769    0.4000
     42 H42        -2.9933    1.4299   55.3516 H       1  ZINC000505965769    0.1300
     43 H43        -4.9082    1.1512   56.8737 H       1  ZINC000505965769    0.1400
     44 H44        -4.9574    5.3614   57.5774 H       1  ZINC000505965769    0.1400
     45 H45        -3.0391    5.6357   56.0586 H       1  ZINC000505965769    0.1400
     46 H46         0.6543    2.5234   53.2884 H       1  ZINC000505965769    0.0700
     47 H47         0.8126    4.0974   54.1407 H       1  ZINC000505965769    0.1000
     48 H48         1.8401    1.3375   55.0163 H       1  ZINC000505965769    0.0700
     49 H49         2.6938    2.9161   55.0761 H       1  ZINC000505965769    0.0800
     50 H50         1.3213    1.8191   57.2428 H       1  ZINC000505965769    0.0700
     51 H51         1.5974    3.5686   57.0243 H       1  ZINC000505965769    0.0700
     52 H52        -1.2261    3.8100   45.1521 H       1  ZINC000505965769    0.1500
@<TRIPOS>BOND
     1     1     2    1
     2     1    32    1
     3     1    33    1
     4     1    34    1
     5     2     3    1
     6     3    31   ar
     7     3     4   ar
     8     4     5   ar
     9     4    35    1
    10     5     6   ar
    11     5    36    1
    12     6     7    1
    13     6    29   ar
    14     7     8    2
    15     7     9    1
    16     9    10    1
    17     9    37    1
    18     9    38    1
    19    10    11    1
    20    10    39    1
    21    10    40    1
    22    11    12    2
    23    11    13   am
    24    13    14    1
    25    13    41    1
    26    14    15    1
    27    14    16    1
    28    14    23    1
    29    16    22   ar
    30    16    17   ar
    31    17    18   ar
    32    17    42    1
    33    18    19   ar
    34    18    43    1
    35    19    20    1
    36    19    21   ar
    37    21    22   ar
    38    21    44    1
    39    22    45    1
    40    23    24    1
    41    23    28    1
    42    23    25    1
    43    25    26    1
    44    25    46    1
    45    25    47    1
    46    26    27    1
    47    26    48    1
    48    26    49    1
    49    27    28    1
    50    27    50    1
    51    27    51    1
    52    29    30    1
    53    29    31   ar
    54    31    52    1
@<TRIPOS>SUBSTRUCTURE
     1 ZINC000505965769        1 TEMP              0 ****  ****    0 ROOT


##########                                Name:    ZINC000442010511
##########                DOCK_Rotatable_Bonds:                  11
##########                         Heavy_Atoms:                  31
##########                    Molecular_Weight:             422.481
##########                DOCK_Rotatable_Bonds:                  11
##########                       Formal_Charge:          -0.0200005
##########                     HBond_Acceptors:                   7
##########                        HBond_Donors:                   2
##########                         Heavy_Atoms:                  31
##########                          Grid_Score:          -33.744740
##########                     Grid_vdw_energy:          -32.444424
##########                      Grid_es_energy:           -1.300316
##########           Internal_energy_repulsive:            8.979318

@<TRIPOS>MOLECULE
ZINC000442010511
 57 59 1 0 0
SMALL
USER_CHARGES


@<TRIPOS>ATOM
      1 C1         -7.5119    5.2632   59.0315 C.3     1  ZINC000442010511   -0.1500
      2 C2         -6.3497    4.3443   59.4132 C.3     1  ZINC000442010511   -0.0500
      3 C3         -6.8177    2.9118   59.4033 C.2     1  ZINC000442010511    0.0000
      4 C4         -6.6876    2.0489   58.3797 C.2     1  ZINC000442010511   -0.2100
      5 C5         -7.2604    0.8263   58.7994 C.2     1  ZINC000442010511   -0.1900
      6 C6         -7.7062    1.0153   60.0543 C.2     1  ZINC000442010511   -0.0300
      7 C7         -8.3924   -0.0175   60.9107 C.3     1  ZINC000442010511    0.2400
      8 H8         -7.6879   -0.8120   61.1566 H       1  ZINC000442010511    0.1400
      9 C9         -8.8914    0.6386   62.1997 C.3     1  ZINC000442010511    0.0500
     10 O10        -9.2109   -0.3735   63.1566 O.3     1  ZINC000442010511   -0.3800
     11 C11        -8.1217   -0.7314   64.0096 C.3     1  ZINC000442010511    0.0300
     12 N12        -9.5289   -0.5821   60.1786 N.am    1  ZINC000442010511   -0.6900
     13 C13        -9.9274   -1.8462   60.4233 C.2     1  ZINC000442010511    0.5200
     14 O14        -9.3439   -2.5171   61.2493 O.2     1  ZINC000442010511   -0.5100
     15 C15       -11.0869   -2.4211   59.6783 C.2     1  ZINC000442010511    0.5100
     16 O16       -12.1377   -2.6216   60.2521 O.2     1  ZINC000442010511   -0.5000
     17 N17       -10.9667   -2.7173   58.3691 N.am    1  ZINC000442010511   -0.6300
     18 C18       -12.0526   -3.2557   57.6713 C.ar    1  ZINC000442010511    0.1200
     19 C19       -12.3998   -4.5879   57.8450 C.ar    1  ZINC000442010511   -0.1000
     20 C20       -13.4733   -5.1175   57.1543 C.ar    1  ZINC000442010511   -0.1300
     21 C21       -14.2036   -4.3233   56.2895 C.ar    1  ZINC000442010511   -0.0900
     22 C22       -13.8639   -2.9951   56.1105 C.ar    1  ZINC000442010511   -0.1700
     23 C23       -12.7931   -2.4541   56.8035 C.ar    1  ZINC000442010511    0.1000
     24 O24       -12.4579   -1.1484   56.6286 O.3     1  ZINC000442010511   -0.2600
     25 C25       -11.7781   -0.8097   55.5019 C.ar    1  ZINC000442010511    0.0800
     26 C26       -10.3971   -0.9383   55.4583 C.ar    1  ZINC000442010511   -0.1300
     27 C27        -9.7084   -0.5937   54.3115 C.ar    1  ZINC000442010511   -0.1100
     28 C28       -10.3940   -0.1202   53.2079 C.ar    1  ZINC000442010511   -0.0800
     29 C29        -9.6399    0.2556   51.9584 C.3     1  ZINC000442010511   -0.1200
     30 C30       -11.7700    0.0086   53.2486 C.ar    1  ZINC000442010511   -0.1100
     31 C31       -12.4641   -0.3397   54.3911 C.ar    1  ZINC000442010511   -0.1100
     32 O32        -7.4302    2.2786   60.4170 O.3     1  ZINC000442010511   -0.1600
     33 H33        -7.8675    5.0040   58.0343 H       1  ZINC000442010511    0.0600
     34 H34        -8.3227    5.1409   59.7495 H       1  ZINC000442010511    0.0600
     35 H35        -7.1734    6.2993   59.0386 H       1  ZINC000442010511    0.0700
     36 H36        -5.5388    4.4666   58.6952 H       1  ZINC000442010511    0.0900
     37 H37        -5.9940    4.6034   60.4104 H       1  ZINC000442010511    0.0800
     38 H38        -6.2334    2.2512   57.4210 H       1  ZINC000442010511    0.1500
     39 H39        -7.3275   -0.0845   58.2229 H       1  ZINC000442010511    0.1500
     40 H40        -8.1132    1.2868   62.6023 H       1  ZINC000442010511    0.0700
     41 H41        -9.7818    1.2298   61.9852 H       1  ZINC000442010511    0.0700
     42 H42        -8.4450   -1.5046   64.7067 H       1  ZINC000442010511    0.0900
     43 H43        -7.2962   -1.1084   63.4060 H       1  ZINC000442010511    0.0400
     44 H44        -7.7933    0.1459   64.5670 H       1  ZINC000442010511    0.0400
     45 H45        -9.9945   -0.0462   59.5175 H       1  ZINC000442010511    0.4200
     46 H46       -10.1270   -2.5571   57.9107 H       1  ZINC000442010511    0.4300
     47 H47       -11.8311   -5.2108   58.5195 H       1  ZINC000442010511    0.1600
     48 H48       -13.7423   -6.1547   57.2900 H       1  ZINC000442010511    0.1300
     49 H49       -15.0416   -4.7419   55.7521 H       1  ZINC000442010511    0.1300
     50 H50       -14.4361   -2.3780   55.4337 H       1  ZINC000442010511    0.1300
     51 H51        -9.8612   -1.3075   56.3202 H       1  ZINC000442010511    0.1300
     52 H52        -8.6336   -0.6937   54.2769 H       1  ZINC000442010511    0.1300
     53 H53        -9.5589   -0.6149   51.3073 H       1  ZINC000442010511    0.0700
     54 H54       -10.1734    1.0505   51.4373 H       1  ZINC000442010511    0.0700
     55 H55        -8.6422    0.6029   52.2267 H       1  ZINC000442010511    0.0700
     56 H56       -12.3030    0.3787   52.3853 H       1  ZINC000442010511    0.1300
     57 H57       -13.5389   -0.2390   54.4223 H       1  ZINC000442010511    0.1300
@<TRIPOS>BOND
     1     1     2    1
     2     1    33    1
     3     1    34    1
     4     1    35    1
     5     2     3    1
     6     2    36    1
     7     2    37    1
     8     3    32    1
     9     3     4    2
    10     4     5    1
    11     4    38    1
    12     5     6    2
    13     5    39    1
    14     6     7    1
    15     6    32    1
    16     7     8    1
    17     7     9    1
    18     7    12    1
    19     9    10    1
    20     9    40    1
    21     9    41    1
    22    10    11    1
    23    11    42    1
    24    11    43    1
    25    11    44    1
    26    12    13   am
    27    12    45    1
    28    13    14    2
    29    13    15    1
    30    15    16    2
    31    15    17   am
    32    17    18    1
    33    17    46    1
    34    18    23   ar
    35    18    19   ar
    36    19    20   ar
    37    19    47    1
    38    20    21   ar
    39    20    48    1
    40    21    22   ar
    41    21    49    1
    42    22    23   ar
    43    22    50    1
    44    23    24    1
    45    24    25    1
    46    25    31   ar
    47    25    26   ar
    48    26    27   ar
    49    26    51    1
    50    27    28   ar
    51    27    52    1
    52    28    29    1
    53    28    30   ar
    54    29    53    1
    55    29    54    1
    56    29    55    1
    57    30    31   ar
    58    30    56    1
    59    31    57    1
@<TRIPOS>SUBSTRUCTURE
     1 ZINC000442010511        1 TEMP              0 ****  ****    0 ROOT


##########                                Name:    ZINC001707162141
##########                DOCK_Rotatable_Bonds:                   9
##########                         Heavy_Atoms:                  25
##########                    Molecular_Weight:               344.5
##########                DOCK_Rotatable_Bonds:                   9
##########                       Formal_Charge:          -0.0299999
##########                     HBond_Acceptors:                   5
##########                        HBond_Donors:                   1
##########                         Heavy_Atoms:                  25
##########                          Grid_Score:          -33.712891
##########                     Grid_vdw_energy:          -32.974575
##########                      Grid_es_energy:           -0.738317
##########           Internal_energy_repulsive:           87.174599

@<TRIPOS>MOLECULE
ZINC001707162141
 57 59 1 0 0
SMALL
USER_CHARGES


@<TRIPOS>ATOM
      1 C1         -1.4718    4.6179   51.7283 C.3     1  ZINC001707162141   -0.1800
      2 C2         -2.7908    3.9221   51.3863 C.3     1  ZINC001707162141    0.1700
      3 H3         -3.4594    4.6309   50.8975 H       1  ZINC001707162141    0.1000
      4 N4         -2.5293    2.7931   50.4835 N.3     1  ZINC001707162141   -0.6400
      5 C5         -2.0924    3.2654   49.1628 C.3     1  ZINC001707162141    0.0700
      6 C6         -2.1032    2.0976   48.1745 C.3     1  ZINC001707162141    0.1500
      7 H7         -3.1286    1.7652   48.0127 H       1  ZINC001707162141    0.0700
      8 C8         -1.2682    0.9423   48.7355 C.3     1  ZINC001707162141   -0.1200
      9 C9         -1.1676   -0.1662   47.6851 C.3     1  ZINC001707162141   -0.0900
     10 H10        -2.1684   -0.5078   47.4209 H       1  ZINC001707162141    0.0700
     11 C11        -0.3633   -1.3366   48.2546 C.3     1  ZINC001707162141   -0.1500
     12 C12        -0.4671    0.3740   46.4363 C.3     1  ZINC001707162141   -0.1300
     13 C13        -1.2930    1.5229   45.8492 C.3     1  ZINC001707162141    0.1100
     14 N14        -1.5176    2.5277   46.8974 N.am    1  ZINC001707162141   -0.6100
     15 C15        -1.1922    3.8193   46.6916 C.2     1  ZINC001707162141    0.5100
     16 O16        -1.3825    4.6392   47.5648 O.2     1  ZINC001707162141   -0.4800
     17 C17        -0.5918    4.2448   45.3764 C.3     1  ZINC001707162141   -0.1400
     18 C18        -0.3075    5.7478   45.4081 C.3     1  ZINC001707162141   -0.0900
     19 C19         0.1297    6.2135   44.0177 C.3     1  ZINC001707162141   -0.0900
     20 C20         1.3972    5.4633   43.6038 C.3     1  ZINC001707162141   -0.1500
     21 C21         2.6949    6.2681   43.5077 C.3     1  ZINC001707162141   -0.1800
     22 C22         1.9956    5.7894   42.2339 C.3     1  ZINC001707162141   -0.1800
     23 C23        -3.4340    3.4152   52.6514 C.ar    1  ZINC001707162141    0.3500
     24 N24        -2.6705    3.1101   53.6813 N.ar    1  ZINC001707162141   -0.5000
     25 C25        -3.2002    2.6673   54.8103 C.ar    1  ZINC001707162141    0.1500
     26 C26        -4.5752    2.5157   54.8959 C.ar    1  ZINC001707162141   -0.2400
     27 C27        -5.3444    2.8416   53.7900 C.ar    1  ZINC001707162141    0.1500
     28 N28        -4.7446    3.2837   52.6964 N.ar    1  ZINC001707162141   -0.5200
     29 H29        -1.0065    4.9845   50.8132 H       1  ZINC001707162141    0.0600
     30 H30        -1.6658    5.4555   52.3981 H       1  ZINC001707162141    0.0600
     31 H31        -0.8032    3.9091   52.2170 H       1  ZINC001707162141    0.0600
     32 H32        -1.8529    2.1599   50.8830 H       1  ZINC001707162141    0.3300
     33 H33        -2.7703    4.0439   48.8129 H       1  ZINC001707162141    0.1000
     34 H34        -1.0827    3.6692   49.2371 H       1  ZINC001707162141    0.0200
     35 H35        -0.2692    1.3016   48.9820 H       1  ZINC001707162141    0.0700
     36 H36        -1.7462    0.5504   49.6333 H       1  ZINC001707162141    0.0700
     37 H37         0.6377   -0.9953   48.5184 H       1  ZINC001707162141    0.0500
     38 H38        -0.8621   -1.7215   49.1441 H       1  ZINC001707162141    0.0600
     39 H39        -0.2926   -2.1266   47.5070 H       1  ZINC001707162141    0.0600
     40 H40        -0.3749   -0.4222   45.6978 H       1  ZINC001707162141    0.0700
     41 H41         0.5245    0.7388   46.7045 H       1  ZINC001707162141    0.0700
     42 H42        -2.2514    1.1414   45.4974 H       1  ZINC001707162141    0.0600
     43 H43        -0.7508    1.9758   45.0192 H       1  ZINC001707162141    0.0800
     44 H44         0.3388    3.7024   45.2095 H       1  ZINC001707162141    0.0800
     45 H45        -1.2908    4.0241   44.5697 H       1  ZINC001707162141    0.0800
     46 H46        -1.2106    6.2823   45.7030 H       1  ZINC001707162141    0.0700
     47 H47         0.4867    5.9523   46.1261 H       1  ZINC001707162141    0.0700
     48 H48        -0.6644    6.0089   43.2997 H       1  ZINC001707162141    0.0600
     49 H49         0.3322    7.2843   44.0403 H       1  ZINC001707162141    0.0600
     50 H50         1.4683    4.4327   43.9515 H       1  ZINC001707162141    0.1000
     51 H51         2.6456    7.3319   43.7395 H       1  ZINC001707162141    0.0900
     52 H52         3.6201    5.7669   43.7926 H       1  ZINC001707162141    0.0900
     53 H53         2.4606    4.9735   41.6806 H       1  ZINC001707162141    0.0900
     54 H54         1.4862    6.5384   41.6277 H       1  ZINC001707162141    0.0900
     55 H55        -2.5693    2.4229   55.6521 H       1  ZINC001707162141    0.1600
     56 H56        -5.0362    2.1527   55.8026 H       1  ZINC001707162141    0.1400
     57 H57        -6.4188    2.7358   53.8202 H       1  ZINC001707162141    0.1600
@<TRIPOS>BOND
     1     1     2    1
     2     1    29    1
     3     1    30    1
     4     1    31    1
     5     2     3    1
     6     2     4    1
     7     2    23    1
     8     4     5    1
     9     4    32    1
    10     5     6    1
    11     5    33    1
    12     5    34    1
    13     6     7    1
    14     6    14    1
    15     6     8    1
    16     8     9    1
    17     8    35    1
    18     8    36    1
    19     9    10    1
    20     9    11    1
    21     9    12    1
    22    11    37    1
    23    11    38    1
    24    11    39    1
    25    12    13    1
    26    12    40    1
    27    12    41    1
    28    13    14    1
    29    13    42    1
    30    13    43    1
    31    14    15   am
    32    15    16    2
    33    15    17    1
    34    17    18    1
    35    17    44    1
    36    17    45    1
    37    18    19    1
    38    18    46    1
    39    18    47    1
    40    19    20    1
    41    19    48    1
    42    19    49    1
    43    20    22    1
    44    20    21    1
    45    20    50    1
    46    21    22    1
    47    21    51    1
    48    21    52    1
    49    22    53    1
    50    22    54    1
    51    23    28   ar
    52    23    24   ar
    53    24    25   ar
    54    25    26   ar
    55    25    55    1
    56    26    27   ar
    57    26    56    1
    58    27    28   ar
    59    27    57    1
@<TRIPOS>SUBSTRUCTURE
     1 ZINC001707162141        1 TEMP              0 ****  ****    0 ROOT


##########                                Name:    ZINC000489986384
##########                DOCK_Rotatable_Bonds:                  11
##########                         Heavy_Atoms:                  31
##########                    Molecular_Weight:             415.492
##########                DOCK_Rotatable_Bonds:                  11
##########                       Formal_Charge:          -0.0499997
##########                     HBond_Acceptors:                   6
##########                        HBond_Donors:                   2
##########                         Heavy_Atoms:                  31
##########                          Grid_Score:          -33.704132
##########                     Grid_vdw_energy:          -30.476267
##########                      Grid_es_energy:           -3.227865
##########           Internal_energy_repulsive:           12.344566

@<TRIPOS>MOLECULE
ZINC000489986384
 56 59 1 0 0
SMALL
USER_CHARGES


@<TRIPOS>ATOM
      1 O1         -8.5860    0.8639   62.1768 O.2     1  ZINC000489986384   -0.5000
      2 C2         -7.8325   -0.0863   62.1946 C.2     1  ZINC000489986384    0.4900
      3 C3         -7.7028   -0.9679   60.9792 C.3     1  ZINC000489986384    0.0900
      4 N4         -8.6920   -0.5655   59.9763 N.pl3   1  ZINC000489986384   -0.4700
      5 C5         -8.4545    0.2065   58.8566 C.ar    1  ZINC000489986384    0.0700
      6 C6         -7.3276    0.8178   58.3251 C.ar    1  ZINC000489986384   -0.1100
      7 C7         -7.4302    1.5405   57.1552 C.ar    1  ZINC000489986384   -0.0900
      8 C8         -8.6513    1.6606   56.5077 C.ar    1  ZINC000489986384   -0.1300
      9 C9         -9.7714    1.0661   57.0166 C.ar    1  ZINC000489986384   -0.0600
     10 C10        -9.6912    0.3281   58.2001 C.ar    1  ZINC000489986384    0.0500
     11 N11       -10.5997   -0.3609   58.9375 N.2     1  ZINC000489986384   -0.4600
     12 C12       -10.0135   -0.8884   59.9723 C.2     1  ZINC000489986384    0.2800
     13 C13       -10.7007   -1.7255   61.0202 C.3     1  ZINC000489986384    0.1400
     14 O14       -11.3324   -2.8452   60.3965 O.3     1  ZINC000489986384   -0.3000
     15 C15       -12.6248   -2.6866   60.0072 C.ar    1  ZINC000489986384    0.1300
     16 C16       -13.6161   -2.4824   60.9558 C.ar    1  ZINC000489986384   -0.2100
     17 C17       -14.9291   -2.3210   60.5574 C.ar    1  ZINC000489986384   -0.0800
     18 C18       -15.2554   -2.3632   59.2145 C.ar    1  ZINC000489986384   -0.1600
     19 C19       -14.2692   -2.5670   58.2671 C.ar    1  ZINC000489986384   -0.0800
     20 C20       -12.9540   -2.7229   58.6600 C.ar    1  ZINC000489986384   -0.1500
     21 N21        -7.1068   -0.3505   63.2991 N.am    1  ZINC000489986384   -0.7300
     22 C22        -7.2329    0.5065   64.4806 C.3     1  ZINC000489986384    0.1300
     23 C23        -8.1687   -0.1561   65.4936 C.3     1  ZINC000489986384   -0.0600
     24 H24        -8.5290   -1.1027   65.0906 H       1  ZINC000489986384    0.0900
     25 C25        -7.4099   -0.4126   66.7971 C.3     1  ZINC000489986384    0.0800
     26 O26        -8.3368   -0.7616   67.8272 O.3     1  ZINC000489986384   -0.5700
     27 C27        -9.3400    0.7527   65.7647 C.ar    1  ZINC000489986384   -0.0700
     28 C28        -9.1887    1.8451   66.5981 C.ar    1  ZINC000489986384   -0.1100
     29 C29       -10.2631    2.6787   66.8467 C.ar    1  ZINC000489986384   -0.1200
     30 C30       -11.4885    2.4200   66.2617 C.ar    1  ZINC000489986384   -0.1200
     31 C31       -11.6395    1.3281   65.4275 C.ar    1  ZINC000489986384   -0.1200
     32 C32       -10.5641    0.4970   65.1755 C.ar    1  ZINC000489986384   -0.1100
     33 H33        -6.7007   -0.8667   60.5621 H       1  ZINC000489986384    0.1200
     34 H34        -7.8750   -2.0060   61.2632 H       1  ZINC000489986384    0.1200
     35 H35        -6.3747    0.7280   58.8255 H       1  ZINC000489986384    0.1200
     36 H36        -6.5541    2.0167   56.7404 H       1  ZINC000489986384    0.1300
     37 H37        -8.7173    2.2300   55.5924 H       1  ZINC000489986384    0.1300
     38 H38       -10.7172    1.1666   56.5048 H       1  ZINC000489986384    0.1300
     39 H39        -9.9651   -2.0791   61.7426 H       1  ZINC000489986384    0.0800
     40 H40       -11.4515   -1.1231   61.5316 H       1  ZINC000489986384    0.1000
     41 H41       -13.3618   -2.4501   62.0050 H       1  ZINC000489986384    0.1300
     42 H42       -15.7012   -2.1620   61.2956 H       1  ZINC000489986384    0.1300
     43 H43       -16.2824   -2.2371   58.9051 H       1  ZINC000489986384    0.1200
     44 H44       -14.5267   -2.5999   57.2187 H       1  ZINC000489986384    0.1300
     45 H45       -12.1840   -2.8820   57.9195 H       1  ZINC000489986384    0.1300
     46 H46        -6.5012   -1.1082   63.3118 H       1  ZINC000489986384    0.4000
     47 H47        -6.2513    0.6494   64.9322 H       1  ZINC000489986384    0.0800
     48 H48        -7.6418    1.4731   64.1864 H       1  ZINC000489986384    0.0800
     49 H49        -6.7037   -1.2301   66.6516 H       1  ZINC000489986384    0.0500
     50 H50        -6.8683    0.4882   67.0856 H       1  ZINC000489986384    0.0500
     51 H51        -8.9964   -0.0786   68.0107 H       1  ZINC000489986384    0.3800
     52 H52        -8.2314    2.0472   67.0552 H       1  ZINC000489986384    0.1200
     53 H53       -10.1451    3.5318   67.4984 H       1  ZINC000489986384    0.1200
     54 H54       -12.3280    3.0710   66.4565 H       1  ZINC000489986384    0.1200
     55 H55       -12.5970    1.1259   64.9706 H       1  ZINC000489986384    0.1200
     56 H56       -10.6820   -0.3561   64.5238 H       1  ZINC000489986384    0.1200
@<TRIPOS>BOND
     1     1     2    2
     2     2     3    1
     3     2    21   am
     4     3     4    1
     5     3    33    1
     6     3    34    1
     7     4    12    1
     8     4     5    1
     9     5    10   ar
    10     5     6   ar
    11     6     7   ar
    12     6    35    1
    13     7     8   ar
    14     7    36    1
    15     8     9   ar
    16     8    37    1
    17     9    10   ar
    18     9    38    1
    19    10    11    1
    20    11    12    2
    21    12    13    1
    22    13    14    1
    23    13    39    1
    24    13    40    1
    25    14    15    1
    26    15    20   ar
    27    15    16   ar
    28    16    17   ar
    29    16    41    1
    30    17    18   ar
    31    17    42    1
    32    18    19   ar
    33    18    43    1
    34    19    20   ar
    35    19    44    1
    36    20    45    1
    37    21    22    1
    38    21    46    1
    39    22    23    1
    40    22    47    1
    41    22    48    1
    42    23    24    1
    43    23    25    1
    44    23    27    1
    45    25    26    1
    46    25    49    1
    47    25    50    1
    48    26    51    1
    49    27    32   ar
    50    27    28   ar
    51    28    29   ar
    52    28    52    1
    53    29    30   ar
    54    29    53    1
    55    30    31   ar
    56    30    54    1
    57    31    32   ar
    58    31    55    1
    59    32    56    1
@<TRIPOS>SUBSTRUCTURE
     1 ZINC000489986384        1 TEMP              0 ****  ****    0 ROOT


##########                                Name:    ZINC001289445798
##########                DOCK_Rotatable_Bonds:                  10
##########                         Heavy_Atoms:                  25
##########                    Molecular_Weight:             352.434
##########                DOCK_Rotatable_Bonds:                  10
##########                       Formal_Charge:          0.00999932
##########                     HBond_Acceptors:                   8
##########                        HBond_Donors:                   2
##########                         Heavy_Atoms:                  25
##########                          Grid_Score:          -33.700634
##########                     Grid_vdw_energy:          -32.319859
##########                      Grid_es_energy:           -1.380775
##########           Internal_energy_repulsive:           19.638884

@<TRIPOS>MOLECULE
ZINC001289445798
 53 54 1 0 0
SMALL
USER_CHARGES


@<TRIPOS>ATOM
      1 C1         -3.1697    4.9681   53.8298 C.3     1  ZINC001289445798   -0.1500
      2 C2         -2.8677    5.0072   52.3305 C.3     1  ZINC001289445798    0.0600
      3 O3         -1.5444    4.5203   52.0982 O.3     1  ZINC001289445798   -0.3700
      4 C4         -1.1607    4.5138   50.7218 C.3     1  ZINC001289445798    0.1100
      5 H5         -1.3463    5.4964   50.2882 H       1  ZINC001289445798    0.0700
      6 C6         -1.9783    3.4617   49.9695 C.3     1  ZINC001289445798   -0.1400
      7 C7         -1.7016    3.5724   48.4923 C.2     1  ZINC001289445798    0.5400
      8 O8         -1.6885    4.6610   47.9577 O.2     1  ZINC001289445798   -0.5200
      9 N9         -1.4688    2.4617   47.7653 N.am    1  ZINC001289445798   -0.6200
     10 C10        -1.1791    2.4258   46.3243 C.3     1  ZINC001289445798    0.1000
     11 C11        -0.9562    0.9485   45.9383 C.3     1  ZINC001289445798    0.1400
     12 H12        -1.8723    0.5110   45.5416 H       1  ZINC001289445798    0.1200
     13 N13         0.1365    0.8248   44.9705 N.am    1  ZINC001289445798   -0.7200
     14 C14        -0.1379    0.6216   43.6667 C.2     1  ZINC001289445798    0.6000
     15 O15        -1.2927    0.5394   43.2938 O.2     1  ZINC001289445798   -0.5100
     16 C16         0.9597    0.4991   42.6941 C.2     1  ZINC001289445798   -0.0500
     17 C17         0.9006   -0.0941   41.4450 C.2     1  ZINC001289445798   -0.1400
     18 C18         2.1839    0.0404   40.9104 C.2     1  ZINC001289445798    0.0000
     19 N19         2.9222    0.6656   41.7914 N.2     1  ZINC001289445798   -0.2700
     20 N20         2.2396    0.9535   42.8407 N.pl3   1  ZINC001289445798   -0.3800
     21 C21        -0.5743    0.2899   47.2903 C.3     1  ZINC001289445798    0.0700
     22 H22         0.4834    0.4345   47.5104 H       1  ZINC001289445798    0.0900
     23 O23        -0.9106   -1.0990   47.2967 O.3     1  ZINC001289445798   -0.3700
     24 C24        -0.1848   -1.8683   48.2575 C.3     1  ZINC001289445798    0.0300
     25 C25        -1.4559    1.0820   48.2845 C.3     1  ZINC001289445798    0.0800
     26 C26         0.3280    4.1793   50.6088 C.3     1  ZINC001289445798   -0.1100
     27 C27         1.1564    5.4245   50.9314 C.3     1  ZINC001289445798   -0.1500
     28 C28         0.6767    3.0646   51.5970 C.3     1  ZINC001289445798   -0.1500
     29 H29        -2.4536    5.5950   54.3611 H       1  ZINC001289445798    0.0600
     30 H30        -4.1791    5.3394   54.0069 H       1  ZINC001289445798    0.0700
     31 H31        -3.0916    3.9423   54.1896 H       1  ZINC001289445798    0.0600
     32 H32        -3.5838    4.3803   51.7991 H       1  ZINC001289445798    0.0500
     33 H33        -2.9458    6.0331   51.9707 H       1  ZINC001289445798    0.0500
     34 H34        -1.6992    2.4673   50.3180 H       1  ZINC001289445798    0.1100
     35 H35        -3.0399    3.6266   50.1537 H       1  ZINC001289445798    0.1000
     36 H36        -2.0232    2.8315   45.7664 H       1  ZINC001289445798    0.0800
     37 H37        -0.2798    3.0042   46.1124 H       1  ZINC001289445798    0.0800
     38 H38         1.0576    0.8890   45.2679 H       1  ZINC001289445798    0.4000
     39 H39         0.0440   -0.5617   40.9821 H       1  ZINC001289445798    0.1700
     40 H40         2.5091   -0.3100   39.9420 H       1  ZINC001289445798    0.1900
     41 H41         2.5824    1.4166   43.6210 H       1  ZINC001289445798    0.4400
     42 H42        -0.4975   -2.9110   48.1992 H       1  ZINC001289445798    0.0900
     43 H43         0.8826   -1.7970   48.0486 H       1  ZINC001289445798    0.0400
     44 H44        -0.3860   -1.4842   49.2575 H       1  ZINC001289445798    0.0500
     45 H45        -1.0209    1.0530   49.2835 H       1  ZINC001289445798    0.0900
     46 H46        -2.4682    0.6782   48.2987 H       1  ZINC001289445798    0.0900
     47 H47         0.5500    3.8481   49.5943 H       1  ZINC001289445798    0.0800
     48 H48         0.9345    5.7557   51.9459 H       1  ZINC001289445798    0.0600
     49 H49         2.2171    5.1861   50.8510 H       1  ZINC001289445798    0.0600
     50 H50         0.9081    6.2187   50.2274 H       1  ZINC001289445798    0.0600
     51 H51         0.1608    2.1488   51.3085 H       1  ZINC001289445798    0.0600
     52 H52         1.7532    2.8937   51.5870 H       1  ZINC001289445798    0.0600
     53 H53         0.3646    3.3569   52.5996 H       1  ZINC001289445798    0.0500
@<TRIPOS>BOND
     1     1     2    1
     2     1    29    1
     3     1    30    1
     4     1    31    1
     5     2     3    1
     6     2    32    1
     7     2    33    1
     8     3     4    1
     9     4     5    1
    10     4     6    1
    11     4    26    1
    12     6     7    1
    13     6    34    1
    14     6    35    1
    15     7     8    2
    16     7     9   am
    17     9    25    1
    18     9    10    1
    19    10    11    1
    20    10    36    1
    21    10    37    1
    22    11    12    1
    23    11    13    1
    24    11    21    1
    25    13    14   am
    26    13    38    1
    27    14    15    2
    28    14    16    1
    29    16    20    1
    30    16    17    2
    31    17    18    1
    32    17    39    1
    33    18    19    2
    34    18    40    1
    35    19    20    1
    36    20    41    1
    37    21    22    1
    38    21    23    1
    39    21    25    1
    40    23    24    1
    41    24    42    1
    42    24    43    1
    43    24    44    1
    44    25    45    1
    45    25    46    1
    46    26    27    1
    47    26    28    1
    48    26    47    1
    49    27    48    1
    50    27    49    1
    51    27    50    1
    52    28    51    1
    53    28    52    1
    54    28    53    1
@<TRIPOS>SUBSTRUCTURE
     1 ZINC001289445798        1 TEMP              0 ****  ****    0 ROOT


##########                                Name:    ZINC000498646479
##########                DOCK_Rotatable_Bonds:                   7
##########                         Heavy_Atoms:                  29
##########                    Molecular_Weight:              407.58
##########                DOCK_Rotatable_Bonds:                   7
##########                       Formal_Charge:          -0.0199997
##########                     HBond_Acceptors:                   5
##########                        HBond_Donors:                   0
##########                         Heavy_Atoms:                  29
##########                          Grid_Score:          -33.652294
##########                     Grid_vdw_energy:          -32.931747
##########                      Grid_es_energy:           -0.720545
##########           Internal_energy_repulsive:           25.709116

@<TRIPOS>MOLECULE
ZINC000498646479
 58 61 1 0 0
SMALL
USER_CHARGES


@<TRIPOS>ATOM
      1 C1         -8.4296   -0.2514   60.9704 C.3     1  ZINC000498646479   -0.1500
      2 C2         -8.1251   -0.6346   59.5209 C.3     1  ZINC000498646479   -0.0600
      3 C3         -7.6892    0.5901   58.7585 C.2     1  ZINC000498646479   -0.1700
      4 C4         -6.9998    1.6102   59.2716 C.2     1  ZINC000498646479   -0.1400
      5 C5         -6.7112    2.6273   58.3780 C.2     1  ZINC000498646479   -0.1300
      6 C6         -7.1664    2.4330   57.1393 C.2     1  ZINC000498646479   -0.1900
      7 C7         -6.9838    3.3870   55.9871 C.3     1  ZINC000498646479    0.1300
      8 N8         -5.8599    2.9392   55.1538 N.3     1  ZINC000498646479   -0.5300
      9 C9         -4.5855    3.0741   55.8719 C.3     1  ZINC000498646479    0.0400
     10 C10        -3.4665    2.4323   55.0449 C.3     1  ZINC000498646479    0.1200
     11 N11        -3.4859    3.0202   53.6968 N.am    1  ZINC000498646479   -0.6100
     12 C12        -2.3635    3.5220   53.1447 C.2     1  ZINC000498646479    0.5200
     13 O13        -1.3192    3.4925   53.7607 O.2     1  ZINC000498646479   -0.5400
     14 C14        -2.4061    4.1198   51.7620 C.3     1  ZINC000498646479   -0.1000
     15 H15        -3.0564    3.5189   51.1263 H       1  ZINC000498646479    0.0900
     16 C16        -2.9481    5.5484   51.8405 C.3     1  ZINC000498646479   -0.1500
     17 C17        -0.9946    4.1415   51.1721 C.3     1  ZINC000498646479   -0.0600
     18 C18        -1.0593    4.5761   49.7305 C.ar    1  ZINC000498646479   -0.1200
     19 C19        -1.3721    3.6530   48.7164 C.ar    1  ZINC000498646479   -0.0200
     20 C20        -1.6360    2.3030   48.9892 C.ar    1  ZINC000498646479   -0.1200
     21 C21        -1.9335    1.4576   47.9635 C.ar    1  ZINC000498646479   -0.1000
     22 C22        -1.9792    1.9133   46.6470 C.ar    1  ZINC000498646479   -0.1200
     23 C23        -1.7284    3.2173   46.3453 C.ar    1  ZINC000498646479   -0.0900
     24 C24        -1.4187    4.1185   47.3762 C.ar    1  ZINC000498646479   -0.1100
     25 C25        -1.1516    5.4740   47.1263 C.ar    1  ZINC000498646479    0.1400
     26 N26        -0.8670    6.2790   48.1233 N.ar    1  ZINC000498646479   -0.4800
     27 C27        -0.8218    5.8717   49.3842 C.ar    1  ZINC000498646479    0.0800
     28 C28        -4.7627    3.0456   52.9671 C.3     1  ZINC000498646479    0.1100
     29 C29        -5.8307    3.6632   53.8760 C.3     1  ZINC000498646479    0.0400
     30 S30        -8.0051    0.8893   57.0544 S.3     1  ZINC000498646479    0.1300
     31 H31        -8.7449   -1.1372   61.5219 H       1  ZINC000498646479    0.0600
     32 H32        -7.5339    0.1644   61.4322 H       1  ZINC000498646479    0.0600
     33 H33        -9.2269    0.4917   60.9901 H       1  ZINC000498646479    0.0600
     34 H34        -7.3279   -1.3776   59.5013 H       1  ZINC000498646479    0.0800
     35 H35        -9.0207   -1.0504   59.0592 H       1  ZINC000498646479    0.0700
     36 H36        -6.6905    1.6406   60.3058 H       1  ZINC000498646479    0.1400
     37 H37        -6.1598    3.5113   58.6623 H       1  ZINC000498646479    0.1300
     38 H38        -7.8937    3.4110   55.3875 H       1  ZINC000498646479    0.0900
     39 H39        -6.7757    4.3855   56.3716 H       1  ZINC000498646479    0.0500
     40 H40        -4.3645    4.1303   56.0253 H       1  ZINC000498646479    0.0400
     41 H41        -4.6573    2.5732   56.8374 H       1  ZINC000498646479    0.1000
     42 H42        -2.5037    2.6293   55.5164 H       1  ZINC000498646479    0.1000
     43 H43        -3.6314    1.3570   54.9778 H       1  ZINC000498646479    0.0800
     44 H44        -3.0581    5.9511   50.8335 H       1  ZINC000498646479    0.0700
     45 H45        -3.9183    5.5421   52.3373 H       1  ZINC000498646479    0.0600
     46 H46        -2.2541    6.1698   52.4064 H       1  ZINC000498646479    0.0700
     47 H47        -0.3762    4.8407   51.7350 H       1  ZINC000498646479    0.0900
     48 H48        -0.5606    3.1434   51.2315 H       1  ZINC000498646479    0.0800
     49 H49        -1.6034    1.9364   50.0046 H       1  ZINC000498646479    0.1400
     50 H50        -2.1369    0.4179   48.1733 H       1  ZINC000498646479    0.1300
     51 H51        -2.2169    1.2208   45.8532 H       1  ZINC000498646479    0.1300
     52 H52        -1.7675    3.5557   45.3205 H       1  ZINC000498646479    0.1300
     53 H53        -1.1799    5.8535   46.1156 H       1  ZINC000498646479    0.1600
     54 H54        -0.5814    6.5860   50.1579 H       1  ZINC000498646479    0.1500
     55 H55        -4.6568    3.6480   52.0649 H       1  ZINC000498646479    0.0900
     56 H56        -5.0521    2.0292   52.7002 H       1  ZINC000498646479    0.0800
     57 H57        -6.8055    3.5895   53.3939 H       1  ZINC000498646479    0.0900
     58 H58        -5.5923    4.7113   54.0571 H       1  ZINC000498646479    0.0400
@<TRIPOS>BOND
     1     1     2    1
     2     1    31    1
     3     1    32    1
     4     1    33    1
     5     2     3    1
     6     2    34    1
     7     2    35    1
     8     3    30    1
     9     3     4    2
    10     4     5    1
    11     4    36    1
    12     5     6    2
    13     5    37    1
    14     6     7    1
    15     6    30    1
    16     7     8    1
    17     7    38    1
    18     7    39    1
    19     8    29    1
    20     8     9    1
    21     9    10    1
    22     9    40    1
    23     9    41    1
    24    10    11    1
    25    10    42    1
    26    10    43    1
    27    11    12   am
    28    11    28    1
    29    12    13    2
    30    12    14    1
    31    14    15    1
    32    14    16    1
    33    14    17    1
    34    16    44    1
    35    16    45    1
    36    16    46    1
    37    17    18    1
    38    17    47    1
    39    17    48    1
    40    18    27   ar
    41    18    19   ar
    42    19    24   ar
    43    19    20   ar
    44    20    21   ar
    45    20    49    1
    46    21    22   ar
    47    21    50    1
    48    22    23   ar
    49    22    51    1
    50    23    24   ar
    51    23    52    1
    52    24    25   ar
    53    25    26   ar
    54    25    53    1
    55    26    27   ar
    56    27    54    1
    57    28    29    1
    58    28    55    1
    59    28    56    1
    60    29    57    1
    61    29    58    1
@<TRIPOS>SUBSTRUCTURE
     1 ZINC000498646479        1 TEMP              0 ****  ****    0 ROOT


##########                                Name:    ZINC000859608860
##########                DOCK_Rotatable_Bonds:                   8
##########                         Heavy_Atoms:                  24
##########                    Molecular_Weight:             394.268
##########                DOCK_Rotatable_Bonds:                   8
##########                       Formal_Charge:          -0.0200003
##########                     HBond_Acceptors:                   6
##########                        HBond_Donors:                   1
##########                         Heavy_Atoms:                  24
##########                          Grid_Score:          -33.618774
##########                     Grid_vdw_energy:          -31.124012
##########                      Grid_es_energy:           -2.494764
##########           Internal_energy_repulsive:            9.004682

@<TRIPOS>MOLECULE
ZINC000859608860
 44 45 1 0 0
SMALL
USER_CHARGES


@<TRIPOS>ATOM
      1 C1        -10.6829    0.5676   52.0978 C.3     1  ZINC000859608860   -0.1400
      2 C2         -9.3715    0.4770   52.8810 C.3     1  ZINC000859608860   -0.0800
      3 C3         -9.4787   -0.6332   53.9283 C.3     1  ZINC000859608860   -0.1400
      4 C4         -8.2240    0.1619   51.9193 C.3     1  ZINC000859608860   -0.1400
      5 C5         -9.1007    1.8116   53.5783 C.3     1  ZINC000859608860    0.1300
      6 N6         -7.7669    1.7844   54.1837 N.am    1  ZINC000859608860   -0.7300
      7 C7         -7.1033    2.9366   54.4040 C.2     1  ZINC000859608860    0.5100
      8 O8         -7.6097    3.9957   54.0997 O.2     1  ZINC000859608860   -0.5100
      9 C9         -5.7320    2.9088   55.0284 C.3     1  ZINC000859608860    0.0500
     10 O10        -4.7262    2.8291   53.9842 O.3     1  ZINC000859608860   -0.3100
     11 C11        -4.2767    3.9943   53.4772 C.2     1  ZINC000859608860    0.5600
     12 O12        -4.5710    5.0444   54.0140 O.2     1  ZINC000859608860   -0.5100
     13 C13        -3.4297    3.9952   52.2739 C.2     1  ZINC000859608860   -0.0400
     14 C14        -3.5157    3.1235   51.2266 C.2     1  ZINC000859608860    0.0500
     15 N15        -2.5513    3.4831   50.3365 N.pl3   1  ZINC000859608860   -0.4100
     16 C16        -2.2801    2.8576   49.1110 C.ar    1  ZINC000859608860    0.1400
     17 C17        -1.8786    3.6138   48.0182 C.ar    1  ZINC000859608860   -0.1200
     18 C18        -1.6116    2.9954   46.8125 C.ar    1  ZINC000859608860   -0.0600
     19 C19        -1.7441    1.6233   46.6932 C.ar    1  ZINC000859608860   -0.1000
     20 Br20       -1.3778    0.7798   45.0409 Br      1  ZINC000859608860   -0.0300
     21 C21        -2.1436    0.8674   47.7809 C.ar    1  ZINC000859608860   -0.0600
     22 C22        -2.4072    1.4805   48.9902 C.ar    1  ZINC000859608860   -0.1200
     23 C23        -1.8976    4.5604   50.8513 C.2     1  ZINC000859608860    0.2000
     24 N24        -2.4248    4.8669   52.0010 N.2     1  ZINC000859608860   -0.4300
     25 H25       -11.5004    0.7920   52.7829 H       1  ZINC000859608860    0.0500
     26 H26       -10.6065    1.3584   51.3517 H       1  ZINC000859608860    0.0600
     27 H27       -10.8758   -0.3833   51.6010 H       1  ZINC000859608860    0.0600
     28 H28        -9.6716   -1.5840   53.4315 H       1  ZINC000859608860    0.0600
     29 H29        -8.5445   -0.6978   54.4861 H       1  ZINC000859608860    0.0600
     30 H30       -10.2963   -0.4088   54.6134 H       1  ZINC000859608860    0.0500
     31 H31        -8.1477    0.9528   51.1732 H       1  ZINC000859608860    0.0600
     32 H32        -7.2899    0.0974   52.4772 H       1  ZINC000859608860    0.0600
     33 H33        -8.4169   -0.7889   51.4225 H       1  ZINC000859608860    0.0600
     34 H34        -9.1522    2.6198   52.8487 H       1  ZINC000859608860    0.0700
     35 H35        -9.8487    1.9744   54.3543 H       1  ZINC000859608860    0.0700
     36 H36        -7.3614    0.9372   54.4259 H       1  ZINC000859608860    0.4000
     37 H37        -5.5796    3.8172   55.6111 H       1  ZINC000859608860    0.1000
     38 H38        -5.6476    2.0399   55.6812 H       1  ZINC000859608860    0.1000
     39 H39        -4.2141    2.3060   51.1245 H       1  ZINC000859608860    0.2000
     40 H40        -1.7755    4.6849   48.1108 H       1  ZINC000859608860    0.1400
     41 H41        -1.2996    3.5834   45.9621 H       1  ZINC000859608860    0.1500
     42 H42        -2.2463   -0.2035   47.6853 H       1  ZINC000859608860    0.1500
     43 H43        -2.7191    0.8899   49.8389 H       1  ZINC000859608860    0.1500
     44 H44        -1.0763    5.0797   50.3798 H       1  ZINC000859608860    0.2200
@<TRIPOS>BOND
     1     1     2    1
     2     1    25    1
     3     1    26    1
     4     1    27    1
     5     2     3    1
     6     2     4    1
     7     2     5    1
     8     3    28    1
     9     3    29    1
    10     3    30    1
    11     4    31    1
    12     4    32    1
    13     4    33    1
    14     5     6    1
    15     5    34    1
    16     5    35    1
    17     6     7   am
    18     6    36    1
    19     7     8    2
    20     7     9    1
    21     9    10    1
    22     9    37    1
    23     9    38    1
    24    10    11    1
    25    11    12    2
    26    11    13    1
    27    13    24    1
    28    13    14    2
    29    14    15    1
    30    14    39    1
    31    15    16    1
    32    15    23    1
    33    16    22   ar
    34    16    17   ar
    35    17    18   ar
    36    17    40    1
    37    18    19   ar
    38    18    41    1
    39    19    20    1
    40    19    21   ar
    41    21    22   ar
    42    21    42    1
    43    22    43    1
    44    23    24    2
    45    23    44    1
@<TRIPOS>SUBSTRUCTURE
     1 ZINC000859608860        1 TEMP              0 ****  ****    0 ROOT


##########                                Name:    ZINC000013809319
##########                DOCK_Rotatable_Bonds:                  10
##########                         Heavy_Atoms:                  30
##########                    Molecular_Weight:             407.469
##########                DOCK_Rotatable_Bonds:                  10
##########                       Formal_Charge:         -0.00999978
##########                     HBond_Acceptors:                   7
##########                        HBond_Donors:                   1
##########                         Heavy_Atoms:                  30
##########                          Grid_Score:          -33.611969
##########                     Grid_vdw_energy:          -32.104004
##########                      Grid_es_energy:           -1.507966
##########           Internal_energy_repulsive:           12.935546

@<TRIPOS>MOLECULE
ZINC000013809319
 55 57 1 0 0
SMALL
USER_CHARGES


@<TRIPOS>ATOM
      1 C1         -4.6862    2.9960   55.3937 C.3     1  ZINC000013809319   -0.1500
      2 C2         -3.3149    3.0432   54.7167 C.3     1  ZINC000013809319    0.0500
      3 O3         -3.3450    3.9879   53.6450 O.3     1  ZINC000013809319   -0.3100
      4 C4         -3.0469    3.5227   52.4046 C.ar    1  ZINC000013809319    0.1500
      5 C5         -1.8944    3.9553   51.7607 C.ar    1  ZINC000013809319   -0.2200
      6 C6         -1.5885    3.4850   50.5022 C.ar    1  ZINC000013809319   -0.0300
      7 C7         -2.4381    2.5728   49.8744 C.ar    1  ZINC000013809319   -0.1100
      8 C8         -2.1126    2.0649   48.5228 C.2     1  ZINC000013809319    0.2300
      9 C9         -1.2067    1.0284   48.3662 C.2     1  ZINC000013809319   -0.2900
     10 C10        -0.9269    0.5765   47.0648 C.2     1  ZINC000013809319    0.5300
     11 O11        -0.1361   -0.3341   46.8792 O.2     1  ZINC000013809319   -0.5400
     12 N12        -1.5502    1.1690   46.0249 N.am    1  ZINC000013809319   -0.5100
     13 C13        -1.2774    0.7174   44.6582 C.3     1  ZINC000013809319    0.0700
     14 C14         0.0950    1.1797   44.2410 C.2     1  ZINC000013809319    0.5000
     15 O15         0.7302    0.5393   43.4303 O.2     1  ZINC000013809319   -0.5200
     16 N16         0.6165    2.3047   44.7690 N.am    1  ZINC000013809319   -0.7200
     17 C17         1.9499    2.7551   44.3622 C.3     1  ZINC000013809319    0.1300
     18 C18         2.1208    4.2325   44.7213 C.3     1  ZINC000013809319   -0.0800
     19 C19         1.4318    5.0839   43.6862 C.ar    1  ZINC000013809319   -0.1200
     20 C20         0.1791    5.6060   43.9430 C.ar    1  ZINC000013809319   -0.0800
     21 C21        -0.4539    6.3869   42.9932 C.ar    1  ZINC000013809319   -0.1500
     22 C22         0.1653    6.6474   41.7850 C.ar    1  ZINC000013809319   -0.0800
     23 C23         1.4185    6.1279   41.5233 C.ar    1  ZINC000013809319   -0.2100
     24 C24         2.0578    5.3486   42.4764 C.ar    1  ZINC000013809319    0.1300
     25 O25         3.2904    4.8365   42.2216 O.3     1  ZINC000013809319   -0.3100
     26 C26         3.8688    5.1397   40.9504 C.3     1  ZINC000013809319    0.0300
     27 C27        -2.4231    2.1743   46.2375 C.2     1  ZINC000013809319    0.3900
     28 N28        -2.6981    2.6023   47.4383 N.2     1  ZINC000013809319   -0.5300
     29 C29        -3.5952    2.1402   50.5243 C.ar    1  ZINC000013809319   -0.0500
     30 C30        -3.8921    2.6107   51.7849 C.ar    1  ZINC000013809319   -0.1600
     31 H31        -4.9318    3.9828   55.7861 H       1  ZINC000013809319    0.0700
     32 H32        -5.4404    2.6962   54.6662 H       1  ZINC000013809319    0.0700
     33 H33        -4.6632    2.2754   56.2112 H       1  ZINC000013809319    0.0800
     34 H34        -2.5606    3.3429   55.4444 H       1  ZINC000013809319    0.0600
     35 H35        -3.0692    2.0563   54.3244 H       1  ZINC000013809319    0.0600
     36 H36        -1.2376    4.6615   52.2470 H       1  ZINC000013809319    0.1300
     37 H37        -0.6925    3.8220   50.0021 H       1  ZINC000013809319    0.1400
     38 H38        -0.7269    0.5789   49.2230 H       1  ZINC000013809319    0.1600
     39 H39        -1.3214   -0.3710   44.6196 H       1  ZINC000013809319    0.1300
     40 H40        -2.0228    1.1355   43.9817 H       1  ZINC000013809319    0.1300
     41 H41         0.1090    2.8163   45.4184 H       1  ZINC000013809319    0.4000
     42 H42         2.7063    2.1655   44.8802 H       1  ZINC000013809319    0.0700
     43 H43         2.0637    2.6274   43.2857 H       1  ZINC000013809319    0.0700
     44 H44         1.6796    4.4221   45.6998 H       1  ZINC000013809319    0.0800
     45 H45         3.1821    4.4798   44.7472 H       1  ZINC000013809319    0.0800
     46 H46        -0.3066    5.4039   44.8861 H       1  ZINC000013809319    0.1300
     47 H47        -1.4337    6.7936   43.1957 H       1  ZINC000013809319    0.1300
     48 H48        -0.3312    7.2573   41.0447 H       1  ZINC000013809319    0.1300
     49 H49         1.9016    6.3315   40.5791 H       1  ZINC000013809319    0.1300
     50 H50         3.9733    6.2197   40.8471 H       1  ZINC000013809319    0.0600
     51 H51         4.8501    4.6710   40.8767 H       1  ZINC000013809319    0.1000
     52 H52         3.2241    4.7596   40.1580 H       1  ZINC000013809319    0.0600
     53 H53        -2.9107    2.6348   45.3909 H       1  ZINC000013809319    0.2000
     54 H54        -4.2547    1.4344   50.0414 H       1  ZINC000013809319    0.1400
     55 H55        -4.7870    2.2762   52.2885 H       1  ZINC000013809319    0.1400
@<TRIPOS>BOND
     1     1     2    1
     2     1    31    1
     3     1    32    1
     4     1    33    1
     5     2     3    1
     6     2    34    1
     7     2    35    1
     8     3     4    1
     9     4    30   ar
    10     4     5   ar
    11     5     6   ar
    12     5    36    1
    13     6     7   ar
    14     6    37    1
    15     7     8    1
    16     7    29   ar
    17     8    28    1
    18     8     9    2
    19     9    10    1
    20     9    38    1
    21    10    11    2
    22    10    12   am
    23    12    13    1
    24    12    27    1
    25    13    14    1
    26    13    39    1
    27    13    40    1
    28    14    15    2
    29    14    16   am
    30    16    17    1
    31    16    41    1
    32    17    18    1
    33    17    42    1
    34    17    43    1
    35    18    19    1
    36    18    44    1
    37    18    45    1
    38    19    24   ar
    39    19    20   ar
    40    20    21   ar
    41    20    46    1
    42    21    22   ar
    43    21    47    1
    44    22    23   ar
    45    22    48    1
    46    23    24   ar
    47    23    49    1
    48    24    25    1
    49    25    26    1
    50    26    50    1
    51    26    51    1
    52    26    52    1
    53    27    28    2
    54    27    53    1
    55    29    30   ar
    56    29    54    1
    57    30    55    1
@<TRIPOS>SUBSTRUCTURE
     1 ZINC000013809319        1 TEMP              0 ****  ****    0 ROOT


##########                                Name:    ZINC000375302598
##########                DOCK_Rotatable_Bonds:                   8
##########                         Heavy_Atoms:                  27
##########                    Molecular_Weight:             368.479
##########                DOCK_Rotatable_Bonds:                   8
##########                       Formal_Charge:               -0.02
##########                     HBond_Acceptors:                   6
##########                        HBond_Donors:                   1
##########                         Heavy_Atoms:                  27
##########                          Grid_Score:          -33.588295
##########                     Grid_vdw_energy:          -33.057198
##########                      Grid_es_energy:           -0.531097
##########           Internal_energy_repulsive:            7.820214

@<TRIPOS>MOLECULE
ZINC000375302598
 55 58 1 0 0
SMALL
USER_CHARGES


@<TRIPOS>ATOM
      1 C1          1.4796   -1.6964   48.5598 C.3     1  ZINC000375302598   -0.1500
      2 C2         -0.0411   -1.7969   48.4238 C.3     1  ZINC000375302598   -0.0300
      3 C3         -0.5963   -0.4629   47.9959 C.2     1  ZINC000375302598    0.1800
      4 N4         -1.1592    0.4334   48.7700 N.2     1  ZINC000375302598   -0.4700
      5 C5         -1.4965    1.4519   47.9589 C.2     1  ZINC000375302598    0.1800
      6 C6         -2.1761    2.7325   48.3705 C.3     1  ZINC000375302598    0.1500
      7 N7         -1.2148    3.5930   49.0729 N.3     1  ZINC000375302598   -0.5300
      8 C8         -1.3744    4.9967   48.6721 C.3     1  ZINC000375302598    0.0500
      9 C9         -0.2674    5.8395   49.3095 C.3     1  ZINC000375302598   -0.1100
     10 C10        -0.3487    5.7119   50.8332 C.3     1  ZINC000375302598   -0.1300
     11 C11        -0.2283    4.2355   51.2210 C.3     1  ZINC000375302598    0.1500
     12 H12         0.7438    3.8550   50.9075 H       1  ZINC000375302598    0.1000
     13 N13        -0.3616    4.0989   52.6735 N.am    1  ZINC000375302598   -0.7300
     14 C14         0.3271    3.1420   53.3265 C.2     1  ZINC000375302598    0.5200
     15 O15         1.0562    2.3930   52.7114 O.2     1  ZINC000375302598   -0.5300
     16 C16         0.1913    3.0026   54.8208 C.3     1  ZINC000375302598   -0.1100
     17 C17        -1.1910    3.4939   55.2553 C.3     1  ZINC000375302598   -0.1200
     18 H18        -1.4751    4.4810   54.8907 H       1  ZINC000375302598    0.1200
     19 C19        -1.6801    3.0869   56.6467 C.3     1  ZINC000375302598   -0.1700
     20 C20        -2.2987    2.4486   55.4006 C.3     1  ZINC000375302598   -0.1100
     21 H21        -2.0428    1.4108   55.1868 H       1  ZINC000375302598    0.1100
     22 C22        -3.6995    2.8621   55.0293 C.ar    1  ZINC000375302598   -0.0500
     23 C23        -4.7744    2.4021   55.7670 C.ar    1  ZINC000375302598   -0.1200
     24 C24        -6.0593    2.7814   55.4264 C.ar    1  ZINC000375302598   -0.1200
     25 C25        -6.2694    3.6211   54.3487 C.ar    1  ZINC000375302598   -0.1300
     26 C26        -5.1945    4.0818   53.6116 C.ar    1  ZINC000375302598   -0.1200
     27 C27        -3.9092    3.7059   53.9547 C.ar    1  ZINC000375302598   -0.1100
     28 C28        -1.3364    3.4392   50.5282 C.3     1  ZINC000375302598    0.0500
     29 N29        -1.1284    1.1290   46.7552 N.2     1  ZINC000375302598   -0.3800
     30 O30        -0.6040    0.0352   46.7557 O.3     1  ZINC000375302598    0.0800
     31 H31         1.7286   -0.9427   49.3069 H       1  ZINC000375302598    0.0600
     32 H32         1.8812   -2.6613   48.8693 H       1  ZINC000375302598    0.0800
     33 H33         1.9124   -1.4136   47.6002 H       1  ZINC000375302598    0.0600
     34 H34        -0.2900   -2.5505   47.6767 H       1  ZINC000375302598    0.1100
     35 H35        -0.4738   -2.0796   49.3834 H       1  ZINC000375302598    0.1000
     36 H36        -2.5460    3.2485   47.4845 H       1  ZINC000375302598    0.0700
     37 H37        -3.0110    2.5040   49.0330 H       1  ZINC000375302598    0.1100
     38 H38        -1.3104    5.0740   47.5867 H       1  ZINC000375302598    0.0800
     39 H39        -2.3459    5.3613   49.0054 H       1  ZINC000375302598    0.0400
     40 H40         0.7041    5.4842   48.9658 H       1  ZINC000375302598    0.0700
     41 H41        -0.3952    6.8838   49.0244 H       1  ZINC000375302598    0.0700
     42 H42         0.4647    6.2760   51.2899 H       1  ZINC000375302598    0.0700
     43 H43        -1.3047    6.1031   51.1810 H       1  ZINC000375302598    0.0600
     44 H44        -0.9456    4.6973   53.1653 H       1  ZINC000375302598    0.4000
     45 H45         0.3092    1.9556   55.1002 H       1  ZINC000375302598    0.1000
     46 H46         0.9599    3.5987   55.3128 H       1  ZINC000375302598    0.1000
     47 H47        -1.0172    2.4693   57.2526 H       1  ZINC000375302598    0.1000
     48 H48        -2.2865    3.8062   57.1974 H       1  ZINC000375302598    0.1000
     49 H49        -4.6102    1.7461   56.6091 H       1  ZINC000375302598    0.1200
     50 H50        -6.8991    2.4215   56.0023 H       1  ZINC000375302598    0.1200
     51 H51        -7.2734    3.9169   54.0822 H       1  ZINC000375302598    0.1200
     52 H52        -5.3587    4.7375   52.7693 H       1  ZINC000375302598    0.1200
     53 H53        -3.0695    4.0659   53.3788 H       1  ZINC000375302598    0.1200
     54 H54        -2.3082    3.8111   50.8528 H       1  ZINC000375302598    0.0400
     55 H55        -1.2449    2.3853   50.7909 H       1  ZINC000375302598    0.0900
@<TRIPOS>BOND
     1     1     2    1
     2     1    31    1
     3     1    32    1
     4     1    33    1
     5     2     3    1
     6     2    34    1
     7     2    35    1
     8     3    30    1
     9     3     4    2
    10     4     5    1
    11     5     6    1
    12     5    29    2
    13     6     7    1
    14     6    36    1
    15     6    37    1
    16     7    28    1
    17     7     8    1
    18     8     9    1
    19     8    38    1
    20     8    39    1
    21     9    10    1
    22     9    40    1
    23     9    41    1
    24    10    11    1
    25    10    42    1
    26    10    43    1
    27    11    12    1
    28    11    13    1
    29    11    28    1
    30    13    14   am
    31    13    44    1
    32    14    15    2
    33    14    16    1
    34    16    17    1
    35    16    45    1
    36    16    46    1
    37    17    18    1
    38    17    20    1
    39    17    19    1
    40    19    20    1
    41    19    47    1
    42    19    48    1
    43    20    21    1
    44    20    22    1
    45    22    27   ar
    46    22    23   ar
    47    23    24   ar
    48    23    49    1
    49    24    25   ar
    50    24    50    1
    51    25    26   ar
    52    25    51    1
    53    26    27   ar
    54    26    52    1
    55    27    53    1
    56    28    54    1
    57    28    55    1
    58    29    30    1
@<TRIPOS>SUBSTRUCTURE
     1 ZINC000375302598        1 TEMP              0 ****  ****    0 ROOT


##########                                Name:    ZINC000074782190
##########                DOCK_Rotatable_Bonds:                   9
##########                         Heavy_Atoms:                  25
##########                    Molecular_Weight:             341.453
##########                DOCK_Rotatable_Bonds:                   9
##########                       Formal_Charge:          -0.0200006
##########                     HBond_Acceptors:                   5
##########                        HBond_Donors:                   1
##########                         Heavy_Atoms:                  25
##########                          Grid_Score:          -33.556923
##########                     Grid_vdw_energy:          -32.586575
##########                      Grid_es_energy:           -0.970347
##########           Internal_energy_repulsive:           29.971273

@<TRIPOS>MOLECULE
ZINC000074782190
 52 53 1 0 0
SMALL
USER_CHARGES


@<TRIPOS>ATOM
      1 C1         -4.9087    3.2995   52.7901 C.3     1  ZINC000074782190   -0.1100
      2 C2         -3.6592    3.1560   53.6202 C.ar    1  ZINC000074782190   -0.1200
      3 C3         -3.7074    2.4989   54.8341 C.ar    1  ZINC000074782190   -0.0800
      4 C4         -2.5612    2.3674   55.5966 C.ar    1  ZINC000074782190   -0.1500
      5 C5         -1.3645    2.8925   55.1458 C.ar    1  ZINC000074782190   -0.0900
      6 C6         -1.3108    3.5502   53.9320 C.ar    1  ZINC000074782190   -0.2100
      7 C7         -2.4580    3.6789   53.1630 C.ar    1  ZINC000074782190    0.1300
      8 O8         -2.4079    4.3256   51.9686 O.3     1  ZINC000074782190   -0.3000
      9 C9         -1.7364    3.6590   50.8978 C.3     1  ZINC000074782190    0.0700
     10 H10        -1.2615    2.7532   51.2745 H       1  ZINC000074782190    0.0800
     11 C11        -0.6715    4.5858   50.3080 C.3     1  ZINC000074782190   -0.1800
     12 C12        -2.7492    3.2899   49.8120 C.3     1  ZINC000074782190    0.1400
     13 N13        -2.2825    2.1024   49.0921 N.am    1  ZINC000074782190   -0.7500
     14 C14        -2.0967    2.1527   47.7582 C.2     1  ZINC000074782190    0.7100
     15 O15        -2.3164    3.1836   47.1522 O.2     1  ZINC000074782190   -0.5900
     16 N16        -1.6673    1.0602   47.0959 N.am    1  ZINC000074782190   -0.6200
     17 C17        -1.4026   -0.1820   47.8260 C.3     1  ZINC000074782190    0.1800
     18 C18         0.0627   -0.2605   48.1692 C.ar    1  ZINC000074782190   -0.1600
     19 C19         0.6492   -1.4804   48.4684 C.ar    1  ZINC000074782190   -0.0500
     20 C20         2.0008   -1.5048   48.7778 C.ar    1  ZINC000074782190   -0.1800
     21 C21         2.7131   -0.3207   48.7775 C.ar    1  ZINC000074782190    0.1000
     22 N22         2.1219    0.8220   48.4877 N.ar    1  ZINC000074782190   -0.4900
     23 C23         0.8403    0.8822   48.1838 C.ar    1  ZINC000074782190    0.1100
     24 C24        -1.4653    1.1149   45.6459 C.3     1  ZINC000074782190    0.1300
     25 C25        -0.2685    2.0147   45.3312 C.3     1  ZINC000074782190   -0.1800
     26 C26        -1.1972   -0.2946   45.1148 C.3     1  ZINC000074782190   -0.1800
     27 H27        -5.0009    2.4439   52.1212 H       1  ZINC000074782190    0.0700
     28 H28        -5.7780    3.3429   53.4465 H       1  ZINC000074782190    0.0600
     29 H29        -4.8514    4.2156   52.2023 H       1  ZINC000074782190    0.0700
     30 H30        -4.6412    2.0878   55.1883 H       1  ZINC000074782190    0.1300
     31 H31        -2.6012    1.8539   56.5458 H       1  ZINC000074782190    0.1200
     32 H32        -0.4707    2.7887   55.7433 H       1  ZINC000074782190    0.1200
     33 H33        -0.3757    3.9606   53.5805 H       1  ZINC000074782190    0.1300
     34 H34        -1.1464    5.4916   49.9313 H       1  ZINC000074782190    0.0700
     35 H35         0.0501    4.8487   51.0816 H       1  ZINC000074782190    0.0700
     36 H36        -0.1593    4.0773   49.4912 H       1  ZINC000074782190    0.0800
     37 H37        -3.7147    3.0798   50.2721 H       1  ZINC000074782190    0.0800
     38 H38        -2.8526    4.1208   49.1139 H       1  ZINC000074782190    0.0900
     39 H39        -2.1071    1.2800   49.5756 H       1  ZINC000074782190    0.4100
     40 H40        -1.9918   -0.1972   48.7428 H       1  ZINC000074782190    0.0900
     41 H41        -1.6762   -1.0343   47.2041 H       1  ZINC000074782190    0.1000
     42 H42         0.0672   -2.3902   48.4611 H       1  ZINC000074782190    0.1400
     43 H43         2.4903   -2.4375   49.0163 H       1  ZINC000074782190    0.1300
     44 H44         3.7659   -0.3312   49.0178 H       1  ZINC000074782190    0.1600
     45 H45         0.3910    1.8366   47.9519 H       1  ZINC000074782190    0.1500
     46 H46        -2.3587    1.5188   45.1697 H       1  ZINC000074782190    0.1000
     47 H47         0.6399    1.5638   45.7308 H       1  ZINC000074782190    0.0600
     48 H48        -0.1733    2.1282   44.2514 H       1  ZINC000074782190    0.0700
     49 H49        -0.4197    2.9930   45.7875 H       1  ZINC000074782190    0.0600
     50 H50        -2.0925   -0.9047   45.2352 H       1  ZINC000074782190    0.0700
     51 H51        -0.9335   -0.2409   44.0586 H       1  ZINC000074782190    0.0700
     52 H52        -0.3746   -0.7426   45.6724 H       1  ZINC000074782190    0.0700
@<TRIPOS>BOND
     1     1     2    1
     2     1    27    1
     3     1    28    1
     4     1    29    1
     5     2     7   ar
     6     2     3   ar
     7     3     4   ar
     8     3    30    1
     9     4     5   ar
    10     4    31    1
    11     5     6   ar
    12     5    32    1
    13     6     7   ar
    14     6    33    1
    15     7     8    1
    16     8     9    1
    17     9    10    1
    18     9    11    1
    19     9    12    1
    20    11    34    1
    21    11    35    1
    22    11    36    1
    23    12    13    1
    24    12    37    1
    25    12    38    1
    26    13    14   am
    27    13    39    1
    28    14    15    2
    29    14    16   am
    30    16    17    1
    31    16    24    1
    32    17    18    1
    33    17    40    1
    34    17    41    1
    35    18    23   ar
    36    18    19   ar
    37    19    20   ar
    38    19    42    1
    39    20    21   ar
    40    20    43    1
    41    21    22   ar
    42    21    44    1
    43    22    23   ar
    44    23    45    1
    45    24    25    1
    46    24    26    1
    47    24    46    1
    48    25    47    1
    49    25    48    1
    50    25    49    1
    51    26    50    1
    52    26    51    1
    53    26    52    1
@<TRIPOS>SUBSTRUCTURE
     1 ZINC000074782190        1 TEMP              0 ****  ****    0 ROOT


##########                                Name:    ZINC000011972961
##########                DOCK_Rotatable_Bonds:                   6
##########                         Heavy_Atoms:                  28
##########                    Molecular_Weight:             397.501
##########                DOCK_Rotatable_Bonds:                   6
##########                       Formal_Charge:                   0
##########                     HBond_Acceptors:                   8
##########                        HBond_Donors:                   1
##########                         Heavy_Atoms:                  28
##########                          Grid_Score:          -33.554127
##########                     Grid_vdw_energy:          -33.554127
##########                      Grid_es_energy:            0.000000
##########           Internal_energy_repulsive:           21.093906

@<TRIPOS>MOLECULE
ZINC000011972961
 51 54 1 0 0
SMALL
USER_CHARGES


@<TRIPOS>ATOM
      1 C1        -11.1156   -1.3622   56.9186 C.3        w      0.0000
      2 C2        -10.7425   -1.9171   58.2691 C.2        w      0.0000
      3 C3        -11.3294   -3.0065   58.7807 C.2        w      0.0000
      4 C4        -12.3825   -3.7800   58.1115 C.2        w      0.0000
      5 O5        -12.0900   -4.5863   57.2485 O.2        w      0.0000
      6 N6        -13.6733   -3.5969   58.4531 N.am       w      0.0000
      7 C7        -14.7243   -4.3688   57.7852 C.3        w      0.0000
      8 C8        -14.0256   -2.6262   59.4922 C.3        w      0.0000
      9 H9        -13.1578   -2.4003   60.1119 H          w      0.0000
     10 C10       -14.5888   -1.3319   58.8561 C.3        w      0.0000
     11 C11       -16.1186   -1.5513   58.9742 C.3        w      0.0000
     12 O12       -16.2662   -2.2167   60.2470 O.3        w      0.0000
     13 C13       -15.1830   -3.1595   60.3585 C.3        w      0.0000
     14 S14       -10.6655   -3.3828   60.3615 S.3        w      0.0000
     15 C15        -9.5730   -2.0070   60.2848 C.ar       w      0.0000
     16 N16        -8.6613   -1.5537   61.1527 N.ar       w      0.0000
     17 C17        -7.9423   -0.4875   60.8856 C.ar       w      0.0000
     18 N18        -8.0775    0.1884   59.7592 N.ar       w      0.0000
     19 C19        -8.9530   -0.1802   58.8364 C.ar       w      0.0000
     20 N20        -9.0811    0.5379   57.6649 N.pl3      w      0.0000
     21 C21        -7.9398    1.2909   57.1388 C.3        w      0.0000
     22 C22        -8.2050    1.6676   55.7040 C.ar       w      0.0000
     23 N23        -8.6897    0.7663   54.8725 N.ar       w      0.0000
     24 C24        -8.9376    1.0509   53.6088 C.ar       w      0.0000
     25 C25        -9.4916   -0.0159   52.7000 C.3        w      0.0000
     26 C26        -8.6956    2.3161   53.1085 C.ar       w      0.0000
     27 C27        -8.1858    3.2906   53.9531 C.ar       w      0.0000
     28 C28        -7.9424    2.9555   55.2761 C.ar       w      0.0000
     29 C29        -9.7560   -1.3323   59.0698 C.ar       w      0.0000
     30 H30       -10.2879   -1.5084   56.2245 H          w      0.0000
     31 H31       -11.9991   -1.8794   56.5446 H          w      0.0000
     32 H32       -11.3293   -0.2972   57.0098 H          w      0.0000
     33 H33       -14.6136   -5.4242   58.0337 H          w      0.0000
     34 H34       -15.7007   -4.0174   58.1187 H          w      0.0000
     35 H35       -14.6405   -4.2389   56.7062 H          w      0.0000
     36 H36       -14.2770   -0.4534   59.4210 H          w      0.0000
     37 H37       -14.2872   -1.2486   57.8120 H          w      0.0000
     38 H38       -16.6441   -0.5964   58.9771 H          w      0.0000
     39 H39       -16.4789   -2.1864   58.1650 H          w      0.0000
     40 H40       -15.5014   -4.1351   59.9913 H          w      0.0000
     41 H41       -14.8657   -3.2383   61.3984 H          w      0.0000
     42 H42        -7.2166   -0.1522   61.6116 H          w      0.0000
     43 H43        -9.9268    0.5441   57.1898 H          w      0.0000
     44 H44        -7.7965    2.1947   57.7312 H          w      0.0000
     45 H45        -7.0421    0.6750   57.1928 H          w      0.0000
     46 H46       -10.5808    0.0092   52.7319 H          w      0.0000
     47 H47        -9.1538    0.1647   51.6795 H          w      0.0000
     48 H48        -9.1410   -0.9934   53.0312 H          w      0.0000
     49 H49        -8.9007    2.5430   52.0727 H          w      0.0000
     50 H50        -7.9868    4.2881   53.5898 H          w      0.0000
     51 H51        -7.5459    3.6895   55.9620 H          w      0.0000
@<TRIPOS>BOND
     1     1     2    1
     2     1    30    1
     3     1    31    1
     4     1    32    1
     5     2    29    1
     6     2     3    2
     7     3     4    1
     8     3    14    1
     9     4     5    2
    10     4     6   am
    11     6     7    1
    12     6     8    1
    13     7    33    1
    14     7    34    1
    15     7    35    1
    16     8     9    1
    17     8    13    1
    18     8    10    1
    19    10    11    1
    20    10    36    1
    21    10    37    1
    22    11    12    1
    23    11    38    1
    24    11    39    1
    25    12    13    1
    26    13    40    1
    27    13    41    1
    28    14    15    1
    29    15    29   ar
    30    15    16   ar
    31    16    17   ar
    32    17    18   ar
    33    17    42    1
    34    18    19   ar
    35    19    20    1
    36    19    29   ar
    37    20    21    1
    38    20    43    1
    39    21    22    1
    40    21    44    1
    41    21    45    1
    42    22    28   ar
    43    22    23   ar
    44    23    24   ar
    45    24    25    1
    46    24    26   ar
    47    25    46    1
    48    25    47    1
    49    25    48    1
    50    26    27   ar
    51    26    49    1
    52    27    28   ar
    53    27    50    1
    54    28    51    1
@<TRIPOS>SUBSTRUCTURE
     1 w        1 TEMP              0 ****  ****    0 ROOT


##########                                Name:    ZINC000506566356
##########                DOCK_Rotatable_Bonds:                  10
##########                         Heavy_Atoms:                  28
##########                    Molecular_Weight:               415.9
##########                DOCK_Rotatable_Bonds:                  10
##########                       Formal_Charge:           0.0199998
##########                     HBond_Acceptors:                   8
##########                        HBond_Donors:                   2
##########                         Heavy_Atoms:                  28
##########                          Grid_Score:          -33.547791
##########                     Grid_vdw_energy:          -32.418560
##########                      Grid_es_energy:           -1.129230
##########           Internal_energy_repulsive:           10.442842

@<TRIPOS>MOLECULE
ZINC000506566356
 46 48 1 0 0
SMALL
USER_CHARGES


@<TRIPOS>ATOM
      1 O1         -2.7112    2.4763   48.3738 O.2     1  ZINC000506566356   -0.5100
      2 C2         -1.9475    3.3954   48.5864 C.2     1  ZINC000506566356    0.5100
      3 N3         -1.9973    4.0550   49.7606 N.am    1  ZINC000506566356   -0.7000
      4 C4         -2.9772    3.6667   50.7780 C.3     1  ZINC000506566356    0.1200
      5 C5         -2.4053    3.9452   52.1695 C.3     1  ZINC000506566356   -0.0900
      6 C6         -3.4123    3.5432   53.2162 C.ar    1  ZINC000506566356   -0.0700
      7 C7         -2.9838    3.1117   54.4574 C.ar    1  ZINC000506566356   -0.1100
      8 C8         -3.9070    2.7431   55.4184 C.ar    1  ZINC000506566356   -0.1000
      9 C9         -5.2588    2.8055   55.1382 C.ar    1  ZINC000506566356   -0.1100
     10 C10        -5.6883    3.2373   53.8958 C.ar    1  ZINC000506566356   -0.0300
     11 Cl11       -7.3863    3.3165   53.5432 Cl      1  ZINC000506566356   -0.0700
     12 C12        -4.7644    3.6114   52.9367 C.ar    1  ZINC000506566356   -0.1000
     13 C13        -0.9486    3.7913   47.5492 C.2     1  ZINC000506566356    0.5100
     14 O14         0.0310    4.4350   47.8646 O.2     1  ZINC000506566356   -0.5000
     15 N15        -1.1348    3.4338   46.2631 N.am    1  ZINC000506566356   -0.6300
     16 C16        -0.1992    3.8046   45.2917 C.ar    1  ZINC000506566356    0.1100
     17 C17        -0.2396    5.0754   44.7360 C.ar    1  ZINC000506566356   -0.0800
     18 C18         0.6860    5.4392   43.7762 C.ar    1  ZINC000506566356   -0.1400
     19 C19         1.6533    4.5398   43.3676 C.ar    1  ZINC000506566356   -0.0900
     20 C20         1.6999    3.2714   43.9162 C.ar    1  ZINC000506566356   -0.1900
     21 C21         0.7801    2.9003   44.8831 C.ar    1  ZINC000506566356    0.1200
     22 O22         0.8245    1.6536   45.4235 O.3     1  ZINC000506566356   -0.3100
     23 C23         1.7056    1.4578   46.5314 C.3     1  ZINC000506566356    0.1400
     24 C24         1.2567    0.2575   47.3243 C.2     1  ZINC000506566356    0.0500
     25 C25         2.1074   -0.5263   47.9934 C.2     1  ZINC000506566356   -0.2300
     26 S26         1.1724   -1.7997   48.7737 S.3     1  ZINC000506566356    0.1400
     27 C27        -0.2696   -1.1513   48.1227 C.2     1  ZINC000506566356    0.0200
     28 N28        -0.0076   -0.1020   47.4192 N.2     1  ZINC000506566356   -0.4700
     29 H29        -1.3844    4.7871   49.9320 H       1  ZINC000506566356    0.4200
     30 H30        -3.8924    4.2422   50.6394 H       1  ZINC000506566356    0.0800
     31 H31        -3.1985    2.6037   50.6823 H       1  ZINC000506566356    0.0800
     32 H32        -1.4891    3.3711   52.3073 H       1  ZINC000506566356    0.0900
     33 H33        -2.1859    5.0085   52.2659 H       1  ZINC000506566356    0.0900
     34 H34        -1.9274    3.0621   54.6766 H       1  ZINC000506566356    0.1300
     35 H35        -3.5716    2.4061   56.3881 H       1  ZINC000506566356    0.1300
     36 H36        -5.9798    2.5169   55.8887 H       1  ZINC000506566356    0.1300
     37 H37        -5.0990    3.9486   51.9668 H       1  ZINC000506566356    0.1300
     38 H38        -1.9176    2.9193   46.0111 H       1  ZINC000506566356    0.4300
     39 H39        -0.9943    5.7798   45.0531 H       1  ZINC000506566356    0.1500
     40 H40         0.6534    6.4284   43.3441 H       1  ZINC000506566356    0.1300
     41 H41         2.3745    4.8287   42.6173 H       1  ZINC000506566356    0.1300
     42 H42         2.4565    2.5712   43.5940 H       1  ZINC000506566356    0.1400
     43 H43         2.7189    1.2930   46.1651 H       1  ZINC000506566356    0.0900
     44 H44         1.6891    2.3415   47.1694 H       1  ZINC000506566356    0.0900
     45 H45         3.1788   -0.4015   48.0465 H       1  ZINC000506566356    0.1800
     46 H46        -1.2572   -1.5586   48.2813 H       1  ZINC000506566356    0.2100
@<TRIPOS>BOND
     1     1     2    2
     2     2     3   am
     3     2    13    1
     4     3     4    1
     5     3    29    1
     6     4     5    1
     7     4    30    1
     8     4    31    1
     9     5     6    1
    10     5    32    1
    11     5    33    1
    12     6    12   ar
    13     6     7   ar
    14     7     8   ar
    15     7    34    1
    16     8     9   ar
    17     8    35    1
    18     9    10   ar
    19     9    36    1
    20    10    11    1
    21    10    12   ar
    22    12    37    1
    23    13    14    2
    24    13    15   am
    25    15    16    1
    26    15    38    1
    27    16    21   ar
    28    16    17   ar
    29    17    18   ar
    30    17    39    1
    31    18    19   ar
    32    18    40    1
    33    19    20   ar
    34    19    41    1
    35    20    21   ar
    36    20    42    1
    37    21    22    1
    38    22    23    1
    39    23    24    1
    40    23    43    1
    41    23    44    1
    42    24    28    1
    43    24    25    2
    44    25    26    1
    45    25    45    1
    46    26    27    1
    47    27    28    2
    48    27    46    1
@<TRIPOS>SUBSTRUCTURE
     1 ZINC000506566356        1 TEMP              0 ****  ****    0 ROOT


##########                                Name:    ZINC001310073555
##########                DOCK_Rotatable_Bonds:                  12
##########                         Heavy_Atoms:                  27
##########                    Molecular_Weight:             380.484
##########                DOCK_Rotatable_Bonds:                  12
##########                       Formal_Charge:          0.00999888
##########                     HBond_Acceptors:                   7
##########                        HBond_Donors:                   2
##########                         Heavy_Atoms:                  27
##########                          Grid_Score:          -33.547287
##########                     Grid_vdw_energy:          -33.009842
##########                      Grid_es_energy:           -0.537447
##########           Internal_energy_repulsive:           57.957333

@<TRIPOS>MOLECULE
ZINC001310073555
 59 59 1 0 0
SMALL
USER_CHARGES


@<TRIPOS>ATOM
      1 C1          3.2424    3.1718   53.7877 C.3     1  ZINC001310073555   -0.1600
      2 C2          1.8927    3.6173   54.3541 C.3     1  ZINC001310073555   -0.1100
      3 C3          0.9892    4.0846   53.2111 C.3     1  ZINC001310073555   -0.0600
      4 C4          1.4787    5.4394   52.6955 C.3     1  ZINC001310073555   -0.1100
      5 C5          0.7723    5.7695   51.3791 C.3     1  ZINC001310073555   -0.1600
      6 C6          1.0328    3.0606   52.0752 C.3     1  ZINC001310073555    0.1600
      7 N7         -0.2569    3.0468   51.3805 N.am    1  ZINC001310073555   -0.7400
      8 C8         -0.3253    2.6490   50.0946 C.2     1  ZINC001310073555    0.7100
      9 O9          0.6831    2.3002   49.5115 O.2     1  ZINC001310073555   -0.5700
     10 N10        -1.5116    2.6378   49.4549 N.am    1  ZINC001310073555   -0.6700
     11 C11        -1.5830    2.2235   48.1156 C.ar    1  ZINC001310073555    0.1000
     12 C12        -1.6712    3.1651   47.1019 C.ar    1  ZINC001310073555   -0.0400
     13 C13        -1.7416    2.7573   45.7830 C.ar    1  ZINC001310073555   -0.2200
     14 C14        -1.7236    1.4063   45.4706 C.ar    1  ZINC001310073555    0.1500
     15 O15        -1.7929    1.0084   44.1723 O.3     1  ZINC001310073555   -0.3200
     16 C16        -0.7048    0.2275   43.6741 C.3     1  ZINC001310073555    0.0300
     17 C17        -1.6345    0.4605   46.4815 C.ar    1  ZINC001310073555   -0.2300
     18 C18        -1.5595    0.8661   47.8034 C.ar    1  ZINC001310073555    0.1400
     19 O19        -1.4721   -0.0595   48.7958 O.3     1  ZINC001310073555   -0.3100
     20 C20        -0.4284   -1.0296   48.6881 C.3     1  ZINC001310073555    0.0300
     21 C21        -0.4256    4.2193   53.7122 C.2     1  ZINC001310073555    0.4800
     22 O22        -0.9730    5.2963   53.6939 O.2     1  ZINC001310073555   -0.5000
     23 O23        -1.0779    3.1428   54.1786 O.3     1  ZINC001310073555   -0.3400
     24 C24        -2.2251    3.3868   55.0345 C.3     1  ZINC001310073555    0.1200
     25 C25        -1.8254    4.3380   56.1642 C.3     1  ZINC001310073555   -0.1800
     26 C26        -3.3506    4.0168   54.2115 C.3     1  ZINC001310073555   -0.1400
     27 C27        -2.7081    2.0626   55.6296 C.3     1  ZINC001310073555   -0.1800
     28 H28         3.8861    2.8388   54.6020 H       1  ZINC001310073555    0.0600
     29 H29         3.0893    2.3511   53.0869 H       1  ZINC001310073555    0.0500
     30 H30         3.7134    4.0079   53.2709 H       1  ZINC001310073555    0.0600
     31 H31         1.4217    2.7812   54.8710 H       1  ZINC001310073555    0.0800
     32 H32         2.0459    4.4380   55.0549 H       1  ZINC001310073555    0.0800
     33 H33         1.2542    6.2111   53.4318 H       1  ZINC001310073555    0.0800
     34 H34         2.5553    5.3976   52.5297 H       1  ZINC001310073555    0.0800
     35 H35         0.9969    4.9978   50.6428 H       1  ZINC001310073555    0.0600
     36 H36        -0.3042    5.8113   51.5449 H       1  ZINC001310073555    0.0500
     37 H37         1.1211    6.7346   51.0117 H       1  ZINC001310073555    0.0600
     38 H38         1.8211    3.3307   51.3726 H       1  ZINC001310073555    0.0800
     39 H39         1.2351    2.0713   52.4856 H       1  ZINC001310073555    0.0800
     40 H40        -1.0615    3.3238   51.8460 H       1  ZINC001310073555    0.4000
     41 H41        -2.3161    2.9160   49.9200 H       1  ZINC001310073555    0.4100
     42 H42        -1.6854    4.2178   47.3428 H       1  ZINC001310073555    0.1500
     43 H43        -1.8110    3.4921   44.9944 H       1  ZINC001310073555    0.1300
     44 H44         0.2199    0.7987   43.7564 H       1  ZINC001310073555    0.0600
     45 H45        -0.6187   -0.6893   44.2573 H       1  ZINC001310073555    0.0600
     46 H46        -0.8857   -0.0224   42.6287 H       1  ZINC001310073555    0.1000
     47 H47        -1.6206   -0.5914   46.2374 H       1  ZINC001310073555    0.1400
     48 H48        -0.4714   -1.7058   49.5417 H       1  ZINC001310073555    0.1000
     49 H49        -0.5549   -1.5987   47.7670 H       1  ZINC001310073555    0.0600
     50 H50         0.5373   -0.5242   48.6730 H       1  ZINC001310073555    0.0600
     51 H51        -1.4812    5.2813   55.7403 H       1  ZINC001310073555    0.0600
     52 H52        -2.6866    4.5212   56.8068 H       1  ZINC001310073555    0.0700
     53 H53        -1.0236    3.8891   56.7506 H       1  ZINC001310073555    0.0800
     54 H54        -3.6353    3.3391   53.4067 H       1  ZINC001310073555    0.0700
     55 H55        -4.2118    4.2000   54.8541 H       1  ZINC001310073555    0.0800
     56 H56        -3.0064    4.9602   53.7876 H       1  ZINC001310073555    0.0700
     57 H57        -1.9063    1.6138   56.2159 H       1  ZINC001310073555    0.0800
     58 H58        -3.5694    2.2458   56.2720 H       1  ZINC001310073555    0.0700
     59 H59        -2.9930    1.3850   54.8247 H       1  ZINC001310073555    0.0600
@<TRIPOS>BOND
     1     1     2    1
     2     1    28    1
     3     1    29    1
     4     1    30    1
     5     2     3    1
     6     2    31    1
     7     2    32    1
     8     3     4    1
     9     3     6    1
    10     3    21    1
    11     4     5    1
    12     4    33    1
    13     4    34    1
    14     5    35    1
    15     5    36    1
    16     5    37    1
    17     6     7    1
    18     6    38    1
    19     6    39    1
    20     7     8   am
    21     7    40    1
    22     8     9    2
    23     8    10   am
    24    10    11    1
    25    10    41    1
    26    11    18   ar
    27    11    12   ar
    28    12    13   ar
    29    12    42    1
    30    13    14   ar
    31    13    43    1
    32    14    15    1
    33    14    17   ar
    34    15    16    1
    35    16    44    1
    36    16    45    1
    37    16    46    1
    38    17    18   ar
    39    17    47    1
    40    18    19    1
    41    19    20    1
    42    20    48    1
    43    20    49    1
    44    20    50    1
    45    21    22    2
    46    21    23    1
    47    23    24    1
    48    24    25    1
    49    24    26    1
    50    24    27    1
    51    25    51    1
    52    25    52    1
    53    25    53    1
    54    26    54    1
    55    26    55    1
    56    26    56    1
    57    27    57    1
    58    27    58    1
    59    27    59    1
@<TRIPOS>SUBSTRUCTURE
     1 ZINC001310073555        1 TEMP              0 ****  ****    0 ROOT


##########                                Name:    ZINC001124460178
##########                DOCK_Rotatable_Bonds:                  12
##########                         Heavy_Atoms:                  22
##########                    Molecular_Weight:             328.479
##########                DOCK_Rotatable_Bonds:                  12
##########                       Formal_Charge:          -0.0100003
##########                     HBond_Acceptors:                   7
##########                        HBond_Donors:                   2
##########                         Heavy_Atoms:                  22
##########                          Grid_Score:          -33.503868
##########                     Grid_vdw_energy:          -31.976439
##########                      Grid_es_energy:           -1.527430
##########           Internal_energy_repulsive:           14.525635

@<TRIPOS>MOLECULE
ZINC001124460178
 50 50 1 0 0
SMALL
USER_CHARGES


@<TRIPOS>ATOM
      1 C1         -1.0212    0.9979   44.6953 C.3     1  ZINC001124460178   -0.0700
      2 C2         -1.2772    0.5311   46.1052 C.2     1  ZINC001124460178    0.3100
      3 N3         -1.0676   -0.7055   46.4515 N.2     1  ZINC001124460178   -0.5000
      4 S4         -1.4764   -0.7995   48.0984 S.3     1  ZINC001124460178    0.1800
      5 C5         -1.9135    0.8623   48.2264 C.2     1  ZINC001124460178    0.3400
      6 N6         -2.3696    1.5289   49.3493 N.pl3   1  ZINC001124460178   -0.6600
      7 C7         -2.4645    2.9908   49.3452 C.3     1  ZINC001124460178    0.0900
      8 C8         -1.3733    3.5752   50.2446 C.3     1  ZINC001124460178    0.0800
      9 H9         -0.8747    2.7685   50.7820 H       1  ZINC001124460178    0.1200
     10 O10        -0.4192    4.2745   49.4429 O.3     1  ZINC001124460178   -0.5500
     11 C11        -2.0036    4.5431   51.2479 C.3     1  ZINC001124460178    0.0900
     12 N12        -2.1476    3.8770   52.5448 N.am    1  ZINC001124460178   -0.6100
     13 C13        -0.9574    3.4598   53.2902 C.3     1  ZINC001124460178    0.0800
     14 C14        -3.3750    3.6479   53.0520 C.2     1  ZINC001124460178    0.5100
     15 O15        -4.3604    3.9919   52.4342 O.2     1  ZINC001124460178   -0.5400
     16 C16        -3.5231    2.9643   54.3869 C.3     1  ZINC001124460178   -0.1400
     17 C17        -4.9902    3.0034   54.8199 C.3     1  ZINC001124460178   -0.1100
     18 C18        -5.1239    2.4067   56.2224 C.3     1  ZINC001124460178   -0.1200
     19 C19        -6.6027    2.3392   56.6089 C.3     1  ZINC001124460178   -0.1200
     20 C20        -6.7272    1.9551   58.0847 C.3     1  ZINC001124460178   -0.1000
     21 C21        -6.5061    3.1942   58.9545 C.3     1  ZINC001124460178   -0.1500
     22 C22        -8.1241    1.3894   58.3484 C.3     1  ZINC001124460178   -0.1500
     23 N23        -1.7137    1.3605   47.0245 N.2     1  ZINC001124460178   -0.5800
     24 H24         0.0098    1.3408   44.6077 H       1  ZINC001124460178    0.0900
     25 H25        -1.1896    0.1728   44.0032 H       1  ZINC001124460178    0.0900
     26 H26        -1.6984    1.8176   44.4553 H       1  ZINC001124460178    0.0900
     27 H27        -2.6266    1.0284   50.1394 H       1  ZINC001124460178    0.4200
     28 H28        -2.3338    3.3607   48.3283 H       1  ZINC001124460178    0.0800
     29 H29        -3.4432    3.2924   49.7186 H       1  ZINC001124460178    0.0900
     30 H30        -0.6366    5.2050   49.2948 H       1  ZINC001124460178    0.3800
     31 H31        -1.3644    5.4191   51.3584 H       1  ZINC001124460178    0.0900
     32 H32        -2.9846    4.8523   50.8874 H       1  ZINC001124460178    0.1000
     33 H33        -0.6377    4.2691   53.9466 H       1  ZINC001124460178    0.0600
     34 H34        -1.1930    2.5789   53.8875 H       1  ZINC001124460178    0.0800
     35 H35        -0.1561    3.2209   52.5910 H       1  ZINC001124460178    0.0800
     36 H36        -3.1968    1.9277   54.3025 H       1  ZINC001124460178    0.0900
     37 H37        -2.9116    3.4785   55.1283 H       1  ZINC001124460178    0.0900
     38 H38        -5.3386    4.0362   54.8297 H       1  ZINC001124460178    0.0700
     39 H39        -5.5913    2.4238   54.1195 H       1  ZINC001124460178    0.0700
     40 H40        -4.6997    1.4027   56.2320 H       1  ZINC001124460178    0.0600
     41 H41        -4.5900    3.0336   56.9364 H       1  ZINC001124460178    0.0600
     42 H42        -7.0655    3.3125   56.4465 H       1  ZINC001124460178    0.0600
     43 H43        -7.1049    1.5912   55.9952 H       1  ZINC001124460178    0.0600
     44 H44        -5.9781    1.2017   58.3284 H       1  ZINC001124460178    0.0700
     45 H45        -7.2552    3.9476   58.7107 H       1  ZINC001124460178    0.0500
     46 H46        -6.5948    2.9205   60.0059 H       1  ZINC001124460178    0.0500
     47 H47        -5.5110    3.5972   58.7667 H       1  ZINC001124460178    0.0500
     48 H48        -8.2815    0.5067   57.7286 H       1  ZINC001124460178    0.0600
     49 H49        -8.2128    1.1157   59.3997 H       1  ZINC001124460178    0.0500
     50 H50        -8.8731    2.1427   58.1046 H       1  ZINC001124460178    0.0500
@<TRIPOS>BOND
     1     1     2    1
     2     1    24    1
     3     1    25    1
     4     1    26    1
     5     2    23    1
     6     2     3    2
     7     3     4    1
     8     4     5    1
     9     5     6    1
    10     5    23    2
    11     6     7    1
    12     6    27    1
    13     7     8    1
    14     7    28    1
    15     7    29    1
    16     8     9    1
    17     8    10    1
    18     8    11    1
    19    10    30    1
    20    11    12    1
    21    11    31    1
    22    11    32    1
    23    12    13    1
    24    12    14   am
    25    13    33    1
    26    13    34    1
    27    13    35    1
    28    14    15    2
    29    14    16    1
    30    16    17    1
    31    16    36    1
    32    16    37    1
    33    17    18    1
    34    17    38    1
    35    17    39    1
    36    18    19    1
    37    18    40    1
    38    18    41    1
    39    19    20    1
    40    19    42    1
    41    19    43    1
    42    20    21    1
    43    20    22    1
    44    20    44    1
    45    21    45    1
    46    21    46    1
    47    21    47    1
    48    22    48    1
    49    22    49    1
    50    22    50    1
@<TRIPOS>SUBSTRUCTURE
     1 ZINC001124460178        1 TEMP              0 ****  ****    0 ROOT


##########                                Name:    ZINC001060578637
##########                DOCK_Rotatable_Bonds:                  10
##########                         Heavy_Atoms:                  25
##########                    Molecular_Weight:             345.401
##########                DOCK_Rotatable_Bonds:                  10
##########                       Formal_Charge:          -0.0400001
##########                     HBond_Acceptors:                   8
##########                        HBond_Donors:                   3
##########                         Heavy_Atoms:                  25
##########                          Grid_Score:          -33.417397
##########                     Grid_vdw_energy:          -32.713356
##########                      Grid_es_energy:           -0.704042
##########           Internal_energy_repulsive:           18.319267

@<TRIPOS>MOLECULE
ZINC001060578637
 48 49 1 0 0
SMALL
USER_CHARGES


@<TRIPOS>ATOM
      1 C1         -1.1966    3.2061   54.3401 C.3     1  ZINC001060578637   -0.1500
      2 C2         -1.8791    4.3312   55.1206 C.3     1  ZINC001060578637   -0.1300
      3 C3         -3.3975    4.1911   54.9947 C.3     1  ZINC001060578637    0.0700
      4 H4         -3.8805    4.7195   55.8166 H       1  ZINC001060578637    0.0900
      5 O5         -3.7538    2.8081   55.0427 O.3     1  ZINC001060578637   -0.3600
      6 C6         -3.6591    2.2283   56.3454 C.3     1  ZINC001060578637    0.0300
      7 C7         -3.8494    4.7810   53.6837 C.2     1  ZINC001060578637    0.5000
      8 O8         -5.0264    5.0017   53.4917 O.2     1  ZINC001060578637   -0.5200
      9 N9         -2.9456    5.0633   52.7246 N.am    1  ZINC001060578637   -0.7300
     10 C10        -3.3847    5.6384   51.4507 C.3     1  ZINC001060578637    0.1600
     11 C11        -2.7290    4.8989   50.3131 C.ar    1  ZINC001060578637   -0.1100
     12 C12        -3.0813    3.5892   50.0458 C.ar    1  ZINC001060578637   -0.0900
     13 C13        -2.4799    2.9108   49.0022 C.ar    1  ZINC001060578637   -0.1100
     14 C14        -1.5265    3.5424   48.2257 C.ar    1  ZINC001060578637   -0.0900
     15 C15        -0.8704    2.8028   47.0883 C.3     1  ZINC001060578637    0.1800
     16 H16         0.0660    3.2957   46.8267 H       1  ZINC001060578637    0.1000
     17 C17        -1.8026    2.8022   45.8751 C.3     1  ZINC001060578637   -0.1600
     18 N18        -0.5984    1.4222   47.4958 N.am    1  ZINC001060578637   -0.7000
     19 C19         0.6414    1.0668   47.8871 C.2     1  ZINC001060578637    0.6100
     20 O20         1.5346    1.8919   47.9004 O.2     1  ZINC001060578637   -0.5300
     21 C21         0.9148   -0.3223   48.2989 C.2     1  ZINC001060578637    0.1200
     22 N22         2.0769   -0.8145   48.6713 N.2     1  ZINC001060578637   -0.2400
     23 N23         1.9415   -2.0602   48.9603 N.2     1  ZINC001060578637   -0.2900
     24 C24         0.6947   -2.4262   48.7890 C.2     1  ZINC001060578637    0.1900
     25 N25         0.0052   -1.3457   48.3722 N.pl3   1  ZINC001060578637   -0.5500
     26 C26        -1.1752    4.8525   48.4921 C.ar    1  ZINC001060578637   -0.1100
     27 C27        -1.7794    5.5321   49.5332 C.ar    1  ZINC001060578637   -0.0900
     28 H28        -0.1158    3.2876   54.4553 H       1  ZINC001060578637    0.0600
     29 H29        -1.5313    2.2425   54.7242 H       1  ZINC001060578637    0.0500
     30 H30        -1.4566    3.2866   53.2846 H       1  ZINC001060578637    0.0600
     31 H31        -1.5944    4.2692   56.1709 H       1  ZINC001060578637    0.0800
     32 H32        -1.5683    5.2945   54.7161 H       1  ZINC001060578637    0.0800
     33 H33        -4.0190    1.1999   56.3125 H       1  ZINC001060578637    0.0900
     34 H34        -2.6195    2.2391   56.6730 H       1  ZINC001060578637    0.0500
     35 H35        -4.2663    2.8036   57.0441 H       1  ZINC001060578637    0.0400
     36 H36        -2.0044    4.8856   52.8777 H       1  ZINC001060578637    0.4000
     37 H37        -4.4677    5.5493   51.3659 H       1  ZINC001060578637    0.0800
     38 H38        -3.1025    6.6905   51.4106 H       1  ZINC001060578637    0.0800
     39 H39        -3.8262    3.0958   50.6524 H       1  ZINC001060578637    0.1300
     40 H40        -2.7546    1.8874   48.7939 H       1  ZINC001060578637    0.1300
     41 H41        -2.7390    2.3094   46.1367 H       1  ZINC001060578637    0.0600
     42 H42        -2.0051    3.8295   45.5718 H       1  ZINC001060578637    0.0700
     43 H43        -1.3281    2.2673   45.0525 H       1  ZINC001060578637    0.0700
     44 H44        -1.3106    0.7638   47.4840 H       1  ZINC001060578637    0.4100
     45 H45         0.2919   -3.4143   48.9555 H       1  ZINC001060578637    0.2300
     46 H46        -0.9406   -1.3024   48.1617 H       1  ZINC001060578637    0.4400
     47 H47        -0.4306    5.3460   47.8851 H       1  ZINC001060578637    0.1300
     48 H48        -1.5049    6.5557   49.7414 H       1  ZINC001060578637    0.1300
@<TRIPOS>BOND
     1     1     2    1
     2     1    28    1
     3     1    29    1
     4     1    30    1
     5     2     3    1
     6     2    31    1
     7     2    32    1
     8     3     4    1
     9     3     5    1
    10     3     7    1
    11     5     6    1
    12     6    33    1
    13     6    34    1
    14     6    35    1
    15     7     8    2
    16     7     9   am
    17     9    10    1
    18     9    36    1
    19    10    11    1
    20    10    37    1
    21    10    38    1
    22    11    27   ar
    23    11    12   ar
    24    12    13   ar
    25    12    39    1
    26    13    14   ar
    27    13    40    1
    28    14    15    1
    29    14    26   ar
    30    15    16    1
    31    15    17    1
    32    15    18    1
    33    17    41    1
    34    17    42    1
    35    17    43    1
    36    18    19   am
    37    18    44    1
    38    19    20    2
    39    19    21    1
    40    21    25    1
    41    21    22    2
    42    22    23    1
    43    23    24    2
    44    24    25    1
    45    24    45    1
    46    25    46    1
    47    26    27   ar
    48    26    47    1
    49    27    48    1
@<TRIPOS>SUBSTRUCTURE
     1 ZINC001060578637        1 TEMP              0 ****  ****    0 ROOT


##########                                Name:    ZINC000762187039
##########                DOCK_Rotatable_Bonds:                   9
##########                         Heavy_Atoms:                  25
##########                    Molecular_Weight:             354.473
##########                DOCK_Rotatable_Bonds:                   9
##########                       Formal_Charge:        -1.78814e-07
##########                     HBond_Acceptors:                   5
##########                        HBond_Donors:                   1
##########                         Heavy_Atoms:                  25
##########                          Grid_Score:          -33.416954
##########                     Grid_vdw_energy:          -32.959190
##########                      Grid_es_energy:           -0.457765
##########           Internal_energy_repulsive:            4.880002

@<TRIPOS>MOLECULE
ZINC000762187039
 47 49 1 0 0
SMALL
USER_CHARGES


@<TRIPOS>ATOM
      1 C1         -7.8845    0.0087   59.2169 C.3     1  ZINC000762187039   -0.0800
      2 C2         -7.1623    1.2416   58.7378 C.2     1  ZINC000762187039    0.0500
      3 N3         -6.5436    1.3437   57.6102 N.2     1  ZINC000762187039   -0.4700
      4 C4         -5.9632    2.4969   57.3455 C.2     1  ZINC000762187039    0.0700
      5 C5         -5.2076    2.7549   56.0675 C.3     1  ZINC000762187039   -0.0300
      6 C6         -3.7292    2.4187   56.2723 C.3     1  ZINC000762187039   -0.1300
      7 C7         -2.9803    2.6407   54.9835 C.2     1  ZINC000762187039    0.5200
      8 O8         -1.8558    2.2056   54.8530 O.2     1  ZINC000762187039   -0.5400
      9 N9         -3.5601    3.3227   53.9760 N.am    1  ZINC000762187039   -0.7300
     10 C10        -2.8315    3.5399   52.7238 C.3     1  ZINC000762187039    0.1200
     11 C11        -3.1882    4.9161   52.1582 C.3     1  ZINC000762187039   -0.1300
     12 C12        -2.9713    4.9169   50.6437 C.3     1  ZINC000762187039    0.0600
     13 O13        -1.6842    4.3718   50.3466 O.3     1  ZINC000762187039   -0.3100
     14 C14        -1.5344    3.7666   49.1392 C.ar    1  ZINC000762187039    0.1300
     15 C15        -1.3489    4.5472   47.9944 C.ar    1  ZINC000762187039   -0.1900
     16 C16        -1.1960    3.9707   46.7720 C.ar    1  ZINC000762187039   -0.0600
     17 C17        -1.2239    2.5703   46.6535 C.ar    1  ZINC000762187039   -0.0800
     18 C18        -1.0687    1.9415   45.4063 C.ar    1  ZINC000762187039   -0.0900
     19 C19        -1.1005    0.5832   45.3281 C.ar    1  ZINC000762187039   -0.1300
     20 C20        -1.2849   -0.1973   46.4681 C.ar    1  ZINC000762187039   -0.1000
     21 C21        -1.4387    0.3761   47.6925 C.ar    1  ZINC000762187039   -0.1200
     22 C22        -1.4114    1.7766   47.8131 C.ar    1  ZINC000762187039   -0.0100
     23 C23        -1.5614    2.4031   49.0607 C.ar    1  ZINC000762187039   -0.1500
     24 C24        -6.1001    3.4189   58.3032 C.2     1  ZINC000762187039   -0.2600
     25 S25        -7.0506    2.7099   59.6065 S.3     1  ZINC000762187039    0.1200
     26 H26        -8.3201    0.2007   60.1974 H       1  ZINC000762187039    0.0800
     27 H27        -8.6755   -0.2462   58.5116 H       1  ZINC000762187039    0.0900
     28 H28        -7.1803   -0.8202   59.2882 H       1  ZINC000762187039    0.0900
     29 H29        -5.6153    2.1311   55.2720 H       1  ZINC000762187039    0.0900
     30 H30        -5.3067    3.8051   55.7925 H       1  ZINC000762187039    0.0900
     31 H31        -3.3146    3.0615   57.0488 H       1  ZINC000762187039    0.0900
     32 H32        -3.6322    1.3758   56.5739 H       1  ZINC000762187039    0.1000
     33 H33        -4.4600    3.6696   54.0800 H       1  ZINC000762187039    0.4000
     34 H34        -1.7594    3.4923   52.9144 H       1  ZINC000762187039    0.0700
     35 H35        -3.1073    2.7689   52.0044 H       1  ZINC000762187039    0.0700
     36 H36        -4.2329    5.1386   52.3758 H       1  ZINC000762187039    0.0800
     37 H37        -2.5523    5.6733   52.6167 H       1  ZINC000762187039    0.0800
     38 H38        -3.7414    4.3112   50.1661 H       1  ZINC000762187039    0.0700
     39 H39        -3.0284    5.9389   50.2690 H       1  ZINC000762187039    0.0700
     40 H40        -1.3270    5.6236   48.0817 H       1  ZINC000762187039    0.1300
     41 H41        -1.0542    4.5862   45.8960 H       1  ZINC000762187039    0.1300
     42 H42        -0.9252    2.5333   44.5143 H       1  ZINC000762187039    0.1300
     43 H43        -0.9812    0.1028   44.3682 H       1  ZINC000762187039    0.1200
     44 H44        -1.3065   -1.2734   46.3781 H       1  ZINC000762187039    0.1200
     45 H45        -1.5807   -0.2413   48.5671 H       1  ZINC000762187039    0.1300
     46 H46        -1.7010    1.8104   49.9527 H       1  ZINC000762187039    0.1300
     47 H47        -5.7018    4.4225   58.2806 H       1  ZINC000762187039    0.1800
@<TRIPOS>BOND
     1     1     2    1
     2     1    26    1
     3     1    27    1
     4     1    28    1
     5     2    25    1
     6     2     3    2
     7     3     4    1
     8     4     5    1
     9     4    24    2
    10     5     6    1
    11     5    29    1
    12     5    30    1
    13     6     7    1
    14     6    31    1
    15     6    32    1
    16     7     8    2
    17     7     9   am
    18     9    10    1
    19     9    33    1
    20    10    11    1
    21    10    34    1
    22    10    35    1
    23    11    12    1
    24    11    36    1
    25    11    37    1
    26    12    13    1
    27    12    38    1
    28    12    39    1
    29    13    14    1
    30    14    23   ar
    31    14    15   ar
    32    15    16   ar
    33    15    40    1
    34    16    17   ar
    35    16    41    1
    36    17    22   ar
    37    17    18   ar
    38    18    19   ar
    39    18    42    1
    40    19    20   ar
    41    19    43    1
    42    20    21   ar
    43    20    44    1
    44    21    22   ar
    45    21    45    1
    46    22    23   ar
    47    23    46    1
    48    24    25    1
    49    24    47    1
@<TRIPOS>SUBSTRUCTURE
     1 ZINC000762187039        1 TEMP              0 ****  ****    0 ROOT


##########                                Name:    ZINC000151850193
##########                DOCK_Rotatable_Bonds:                  11
##########                         Heavy_Atoms:                  23
##########                    Molecular_Weight:             328.452
##########                DOCK_Rotatable_Bonds:                  11
##########                       Formal_Charge:            0.039999
##########                     HBond_Acceptors:                   6
##########                        HBond_Donors:                   2
##########                         Heavy_Atoms:                  23
##########                          Grid_Score:          -33.390240
##########                     Grid_vdw_energy:          -32.986099
##########                      Grid_es_energy:           -0.404139
##########           Internal_energy_repulsive:           52.625568

@<TRIPOS>MOLECULE
ZINC000151850193
 55 55 1 0 0
SMALL
USER_CHARGES


@<TRIPOS>ATOM
      1 C1         -0.5057    0.7383   44.1833 C.3     1  ZINC000151850193   -0.1500
      2 C2         -1.6038    0.8745   45.2400 C.3     1  ZINC000151850193   -0.1000
      3 C3         -1.0053    1.4464   46.5268 C.3     1  ZINC000151850193   -0.0800
      4 C4         -0.2687    2.7685   46.3029 C.3     1  ZINC000151850193   -0.1000
      5 C5         -1.2134    3.7726   45.6393 C.3     1  ZINC000151850193   -0.1500
      6 C6         -1.9945    1.4817   47.7036 C.3     1  ZINC000151850193    0.1400
      7 H7         -3.0390    1.5262   47.3950 H       1  ZINC000151850193    0.1000
      8 N8         -1.6592    2.4799   48.7222 N.am    1  ZINC000151850193   -0.7000
      9 C9         -2.4241    2.5999   49.8255 C.2     1  ZINC000151850193    0.5200
     10 O10        -3.3907    1.8827   49.9742 O.2     1  ZINC000151850193   -0.5300
     11 C11        -2.0782    3.6255   50.8741 C.3     1  ZINC000151850193   -0.1500
     12 C12        -3.3302    4.4266   51.2365 C.3     1  ZINC000151850193    0.1500
     13 N13        -4.1091    3.6903   52.2352 N.am    1  ZINC000151850193   -0.7100
     14 C14        -3.8137    3.8130   53.5446 C.2     1  ZINC000151850193    0.6500
     15 O15        -2.9006    4.5332   53.8964 O.2     1  ZINC000151850193   -0.5600
     16 O16        -4.5305    3.1375   54.4625 O.3     1  ZINC000151850193   -0.3700
     17 C17        -4.1661    3.3292   55.8549 C.3     1  ZINC000151850193    0.1400
     18 C18        -2.7217    2.8738   56.0715 C.3     1  ZINC000151850193   -0.1800
     19 C19        -4.2933    4.8105   56.2160 C.3     1  ZINC000151850193   -0.1400
     20 C20        -5.0995    2.5055   56.7444 C.3     1  ZINC000151850193   -0.1800
     21 C21        -1.5140    0.0621   48.0479 C.3     1  ZINC000151850193   -0.1700
     22 C22        -0.1972    0.4208   47.3392 C.3     1  ZINC000151850193    0.0700
     23 H23         0.2094   -0.3912   46.7362 H       1  ZINC000151850193    0.0800
     24 O24         0.7758    1.0111   48.2034 O.3     1  ZINC000151850193   -0.3700
     25 C25         2.1242    0.6605   47.8859 C.3     1  ZINC000151850193    0.0300
     26 H26        -0.0967    1.7227   43.9555 H       1  ZINC000151850193    0.0600
     27 H27         0.2872    0.0946   44.5642 H       1  ZINC000151850193    0.0600
     28 H28        -0.9254    0.3007   43.2775 H       1  ZINC000151850193    0.0600
     29 H29        -2.3813    1.5440   44.8720 H       1  ZINC000151850193    0.0700
     30 H30        -2.0351   -0.1055   45.4443 H       1  ZINC000151850193    0.0700
     31 H31         0.0671    3.1643   47.2614 H       1  ZINC000151850193    0.0700
     32 H32         0.5933    2.5994   45.6576 H       1  ZINC000151850193    0.0700
     33 H33        -1.4915    3.4104   44.6495 H       1  ZINC000151850193    0.0500
     34 H34        -2.1094    3.8865   46.2495 H       1  ZINC000151850193    0.0500
     35 H35        -0.7123    4.7361   45.5460 H       1  ZINC000151850193    0.0500
     36 H36        -0.8868    3.0542   48.6026 H       1  ZINC000151850193    0.4100
     37 H37        -1.6990    3.1221   51.7635 H       1  ZINC000151850193    0.1000
     38 H38        -1.3152    4.2998   50.4853 H       1  ZINC000151850193    0.1000
     39 H39        -3.0372    5.3937   51.6451 H       1  ZINC000151850193    0.0800
     40 H40        -3.9359    4.5782   50.3430 H       1  ZINC000151850193    0.0800
     41 H41        -4.8372    3.1143   51.9542 H       1  ZINC000151850193    0.4100
     42 H42        -2.0568    3.4606   55.4377 H       1  ZINC000151850193    0.0600
     43 H43        -2.4482    3.0176   57.1167 H       1  ZINC000151850193    0.0700
     44 H44        -2.6310    1.8184   55.8141 H       1  ZINC000151850193    0.0900
     45 H45        -5.3224    5.1351   56.0617 H       1  ZINC000151850193    0.0700
     46 H46        -4.0198    4.9545   57.2612 H       1  ZINC000151850193    0.0800
     47 H47        -3.6284    5.3974   55.5823 H       1  ZINC000151850193    0.0700
     48 H48        -5.0089    1.4502   56.4871 H       1  ZINC000151850193    0.0900
     49 H49        -4.8259    2.6494   57.7897 H       1  ZINC000151850193    0.0700
     50 H50        -6.1286    2.8300   56.5901 H       1  ZINC000151850193    0.0600
     51 H51        -1.4003   -0.1129   49.1178 H       1  ZINC000151850193    0.0800
     52 H52        -2.0794   -0.7237   47.5471 H       1  ZINC000151850193    0.1000
     53 H53         2.2448   -0.4205   47.9566 H       1  ZINC000151850193    0.0400
     54 H54         2.3552    0.9862   46.8716 H       1  ZINC000151850193    0.0400
     55 H55         2.8013    1.1482   48.5872 H       1  ZINC000151850193    0.0900
@<TRIPOS>BOND
     1     1     2    1
     2     1    26    1
     3     1    27    1
     4     1    28    1
     5     2     3    1
     6     2    29    1
     7     2    30    1
     8     3    22    1
     9     3     4    1
    10     3     6    1
    11     4     5    1
    12     4    31    1
    13     4    32    1
    14     5    33    1
    15     5    34    1
    16     5    35    1
    17     6     7    1
    18     6     8    1
    19     6    21    1
    20     8     9   am
    21     8    36    1
    22     9    10    2
    23     9    11    1
    24    11    12    1
    25    11    37    1
    26    11    38    1
    27    12    13    1
    28    12    39    1
    29    12    40    1
    30    13    14   am
    31    13    41    1
    32    14    15    2
    33    14    16    1
    34    16    17    1
    35    17    18    1
    36    17    19    1
    37    17    20    1
    38    18    42    1
    39    18    43    1
    40    18    44    1
    41    19    45    1
    42    19    46    1
    43    19    47    1
    44    20    48    1
    45    20    49    1
    46    20    50    1
    47    21    22    1
    48    21    51    1
    49    21    52    1
    50    22    23    1
    51    22    24    1
    52    24    25    1
    53    25    53    1
    54    25    54    1
    55    25    55    1
@<TRIPOS>SUBSTRUCTURE
     1 ZINC000151850193        1 TEMP              0 ****  ****    0 ROOT


##########                                Name:    ZINC000572257265
##########                DOCK_Rotatable_Bonds:                  11
##########                         Heavy_Atoms:                  24
##########                    Molecular_Weight:             393.509
##########                DOCK_Rotatable_Bonds:                  11
##########                       Formal_Charge:          -0.0100002
##########                     HBond_Acceptors:                  11
##########                        HBond_Donors:                   3
##########                         Heavy_Atoms:                  24
##########                          Grid_Score:          -33.366722
##########                     Grid_vdw_energy:          -33.021027
##########                      Grid_es_energy:           -0.345695
##########           Internal_energy_repulsive:           10.557240

@<TRIPOS>MOLECULE
ZINC000572257265
 43 43 1 0 0
SMALL
USER_CHARGES


@<TRIPOS>ATOM
      1 C1         -1.6677    3.0590   56.3222 C.3     1  ZINC000572257265   -0.1300
      2 S2         -2.5893    1.9779   55.1942 S.3     1  ZINC000572257265   -0.2200
      3 C3         -4.2284    2.7527   55.1345 C.3     1  ZINC000572257265   -0.1300
      4 C4         -4.2517    3.8124   54.0311 C.3     1  ZINC000572257265    0.1500
      5 C5         -5.7017    4.1646   53.6929 C.3     1  ZINC000572257265   -0.1500
      6 O6         -3.5695    4.9843   54.4819 O.3     1  ZINC000572257265   -0.5400
      7 C7         -3.5554    3.2650   52.7835 C.3     1  ZINC000572257265    0.0900
      8 N8         -3.6704    4.2374   51.6939 N.am    1  ZINC000572257265   -1.1100
      9 S9         -2.3173    4.7253   50.8732 S.o2    1  ZINC000572257265    2.6900
     10 O10        -2.7707    5.5368   49.7984 O.2     1  ZINC000572257265   -0.9400
     11 O11        -1.3949    5.1791   51.8544 O.2     1  ZINC000572257265   -0.9500
     12 C12        -1.6027    3.2888   50.1451 C.ar    1  ZINC000572257265   -0.6300
     13 C13        -0.2289    3.1783   50.0385 C.ar    1  ZINC000572257265   -0.0400
     14 C14         0.3317    2.0513   49.4672 C.ar    1  ZINC000572257265   -0.0400
     15 C15        -0.4816    1.0345   49.0028 C.ar    1  ZINC000572257265   -0.6300
     16 S16         0.2331   -0.4018   48.2741 S.o2    1  ZINC000572257265    2.7000
     17 O17         1.6412   -0.2163   48.3192 O.2     1  ZINC000572257265   -0.9400
     18 O18        -0.4230   -1.5178   48.8600 O.2     1  ZINC000572257265   -0.9400
     19 N19        -0.1877   -0.3998   46.6724 N.am    1  ZINC000572257265   -1.1200
     20 C20         0.2143    0.7147   45.8108 C.3     1  ZINC000572257265    0.2200
     21 C21        -0.3267    0.5086   44.4574 C.1     1  ZINC000572257265    0.1900
     22 N22        -0.7442    0.3495   43.4130 N.1     1  ZINC000572257265   -0.3900
     23 C23        -1.8553    1.1443   49.1105 C.ar    1  ZINC000572257265   -0.0400
     24 C24        -2.4157    2.2697   49.6853 C.ar    1  ZINC000572257265   -0.0400
     25 H25        -2.1598    3.0737   57.2946 H       1  ZINC000572257265    0.0800
     26 H26        -0.6506    2.6836   56.4353 H       1  ZINC000572257265    0.1000
     27 H27        -1.6387    4.0695   55.9144 H       1  ZINC000572257265    0.0800
     28 H28        -4.9818    1.9934   54.9252 H       1  ZINC000572257265    0.0900
     29 H29        -4.4431    3.2228   56.0942 H       1  ZINC000572257265    0.0900
     30 H30        -6.1976    4.5546   54.5816 H       1  ZINC000572257265    0.0800
     31 H31        -5.7183    4.9196   52.9067 H       1  ZINC000572257265    0.0700
     32 H32        -6.2220    3.2707   53.3490 H       1  ZINC000572257265    0.0800
     33 H33        -2.6806    4.8154   54.8230 H       1  ZINC000572257265    0.3800
     34 H34        -2.5025    3.0882   53.0032 H       1  ZINC000572257265    0.0900
     35 H35        -4.0267    2.3284   52.4859 H       1  ZINC000572257265    0.0800
     36 H36        -4.5392    4.5955   51.4530 H       1  ZINC000572257265    0.4300
     37 H37         0.4064    3.9727   50.4014 H       1  ZINC000572257265    0.1500
     38 H38         1.4050    1.9654   49.3834 H       1  ZINC000572257265    0.1500
     39 H39        -0.7004   -1.1366   46.3048 H       1  ZINC000572257265    0.4300
     40 H40        -0.1739    1.6479   46.2190 H       1  ZINC000572257265    0.1100
     41 H41         1.3022    0.7635   45.7637 H       1  ZINC000572257265    0.1300
     42 H42        -2.4906    0.3497   48.7480 H       1  ZINC000572257265    0.1600
     43 H43        -3.4891    2.3555   49.7695 H       1  ZINC000572257265    0.1500
@<TRIPOS>BOND
     1     1     2    1
     2     1    25    1
     3     1    26    1
     4     1    27    1
     5     2     3    1
     6     3     4    1
     7     3    28    1
     8     3    29    1
     9     4     5    1
    10     4     6    1
    11     4     7    1
    12     5    30    1
    13     5    31    1
    14     5    32    1
    15     6    33    1
    16     7     8    1
    17     7    34    1
    18     7    35    1
    19     8     9   am
    20     8    36    1
    21     9    10    2
    22     9    11    2
    23     9    12    1
    24    12    24   ar
    25    12    13   ar
    26    13    14   ar
    27    13    37    1
    28    14    15   ar
    29    14    38    1
    30    15    16    1
    31    15    23   ar
    32    16    17    2
    33    16    18    2
    34    16    19   am
    35    19    20    1
    36    19    39    1
    37    20    21    1
    38    20    40    1
    39    20    41    1
    40    21    22    3
    41    23    24   ar
    42    23    42    1
    43    24    43    1
@<TRIPOS>SUBSTRUCTURE
     1 ZINC000572257265        1 TEMP              0 ****  ****    0 ROOT


##########                                Name:    ZINC000671418508
##########                DOCK_Rotatable_Bonds:                   9
##########                         Heavy_Atoms:                  28
##########                    Molecular_Weight:             405.884
##########                DOCK_Rotatable_Bonds:                   9
##########                       Formal_Charge:         -1.3411e-07
##########                     HBond_Acceptors:                   9
##########                        HBond_Donors:                   2
##########                         Heavy_Atoms:                  28
##########                          Grid_Score:          -33.346325
##########                     Grid_vdw_energy:          -31.959923
##########                      Grid_es_energy:           -1.386402
##########           Internal_energy_repulsive:           20.194569

@<TRIPOS>MOLECULE
ZINC000671418508
 52 54 1 0 0
SMALL
USER_CHARGES


@<TRIPOS>ATOM
      1 C1          2.5484    1.7962   55.0754 C.3     1  ZINC000671418508    0.1000
      2 N2          1.3121    2.2034   55.7478 N.pl3   1  ZINC000671418508   -0.3700
      3 C3          0.2005    2.6770   55.1469 C.2     1  ZINC000671418508    0.0800
      4 C4         -0.7118    2.9357   56.1122 C.2     1  ZINC000671418508   -0.2700
      5 C5         -2.1009    3.4790   55.8967 C.3     1  ZINC000671418508    0.2000
      6 N6         -2.1045    4.3596   54.7259 N.am    1  ZINC000671418508   -0.6900
      7 C7         -3.1893    4.4153   53.9280 C.2     1  ZINC000671418508    0.5100
      8 O8         -4.1624    3.7349   54.1785 O.2     1  ZINC000671418508   -0.5100
      9 C9         -3.1937    5.3150   52.7347 C.2     1  ZINC000671418508    0.5100
     10 O10        -3.2733    6.5170   52.8813 O.2     1  ZINC000671418508   -0.5200
     11 N11        -3.1094    4.7914   51.4956 N.am    1  ZINC000671418508   -0.5800
     12 C12        -3.1059    5.6591   50.3080 C.3     1  ZINC000671418508    0.0800
     13 C13        -1.9104    5.2764   49.4291 C.3     1  ZINC000671418508    0.0400
     14 N14        -1.9565    3.8358   49.1456 N.3     1  ZINC000671418508   -0.5200
     15 C15        -0.9275    3.4587   48.1673 C.3     1  ZINC000671418508    0.1300
     16 H16        -0.0042    3.9950   48.3861 H       1  ZINC000671418508    0.0600
     17 C17        -1.4056    3.8197   46.7594 C.3     1  ZINC000671418508    0.0900
     18 O18        -0.3859    3.4954   45.8124 O.3     1  ZINC000671418508   -0.5500
     19 C19        -0.6778    1.9747   48.2478 C.ar    1  ZINC000671418508   -0.0800
     20 C20        -1.7111    1.0865   48.0149 C.ar    1  ZINC000671418508   -0.0600
     21 C21        -1.4827   -0.2747   48.0886 C.ar    1  ZINC000671418508   -0.1200
     22 C22        -0.2194   -0.7482   48.3955 C.ar    1  ZINC000671418508   -0.0300
     23 Cl23        0.0685   -2.4576   48.4878 Cl      1  ZINC000671418508   -0.0700
     24 C24         0.8144    0.1412   48.6285 C.ar    1  ZINC000671418508   -0.1200
     25 C25         0.5860    1.5021   48.5490 C.ar    1  ZINC000671418508   -0.1100
     26 C26        -1.8264    3.0459   50.3774 C.3     1  ZINC000671418508    0.0400
     27 C27        -3.0123    3.3375   51.2954 C.3     1  ZINC000671418508    0.1100
     28 C28        -0.1381    2.6090   57.3452 C.2     1  ZINC000671418508    0.0700
     29 N29         1.0730    2.1642   57.1274 N.2     1  ZINC000671418508   -0.2900
     30 H30         2.4909    0.7383   54.8187 H       1  ZINC000671418508    0.0800
     31 H31         2.6783    2.3840   54.1666 H       1  ZINC000671418508    0.0900
     32 H32         3.3957    1.9632   55.7404 H       1  ZINC000671418508    0.0900
     33 H33         0.0636    2.8236   54.0856 H       1  ZINC000671418508    0.1800
     34 H34        -2.7926    2.6528   55.7321 H       1  ZINC000671418508    0.0800
     35 H35        -2.4110    4.0428   56.7765 H       1  ZINC000671418508    0.0800
     36 H36        -1.3263    4.9026   54.5249 H       1  ZINC000671418508    0.4100
     37 H37        -4.0311    5.5186   49.7492 H       1  ZINC000671418508    0.0800
     38 H38        -3.0155    6.7008   50.6160 H       1  ZINC000671418508    0.1400
     39 H39        -1.9544    5.8330   48.4930 H       1  ZINC000671418508    0.0900
     40 H40        -0.9839    5.5150   49.9513 H       1  ZINC000671418508    0.0400
     41 H41        -2.3096    3.2567   46.5272 H       1  ZINC000671418508    0.0500
     42 H42        -1.6200    4.8874   46.7112 H       1  ZINC000671418508    0.0500
     43 H43        -0.6535    3.6130   44.8906 H       1  ZINC000671418508    0.3800
     44 H44        -2.6973    1.4562   47.7757 H       1  ZINC000671418508    0.1400
     45 H45        -2.2901   -0.9685   47.9070 H       1  ZINC000671418508    0.1300
     46 H46         1.8006   -0.2278   48.8685 H       1  ZINC000671418508    0.1300
     47 H47         1.3930    2.1965   48.7304 H       1  ZINC000671418508    0.1300
     48 H48        -1.8094    1.9847   50.1288 H       1  ZINC000671418508    0.0900
     49 H49        -0.9011    3.3155   50.8863 H       1  ZINC000671418508    0.0400
     50 H50        -2.8624    2.8433   52.2553 H       1  ZINC000671418508    0.1000
     51 H51        -3.9308    2.9754   50.8334 H       1  ZINC000671418508    0.0800
     52 H52        -0.6142    2.7029   58.3100 H       1  ZINC000671418508    0.1900
@<TRIPOS>BOND
     1     1     2    1
     2     1    30    1
     3     1    31    1
     4     1    32    1
     5     2    29    1
     6     2     3    1
     7     3     4    2
     8     3    33    1
     9     4     5    1
    10     4    28    1
    11     5     6    1
    12     5    34    1
    13     5    35    1
    14     6     7   am
    15     6    36    1
    16     7     8    2
    17     7     9    1
    18     9    10    2
    19     9    11   am
    20    11    27    1
    21    11    12    1
    22    12    13    1
    23    12    37    1
    24    12    38    1
    25    13    14    1
    26    13    39    1
    27    13    40    1
    28    14    15    1
    29    14    26    1
    30    15    16    1
    31    15    17    1
    32    15    19    1
    33    17    18    1
    34    17    41    1
    35    17    42    1
    36    18    43    1
    37    19    25   ar
    38    19    20   ar
    39    20    21   ar
    40    20    44    1
    41    21    22   ar
    42    21    45    1
    43    22    23    1
    44    22    24   ar
    45    24    25   ar
    46    24    46    1
    47    25    47    1
    48    26    27    1
    49    26    48    1
    50    26    49    1
    51    27    50    1
    52    27    51    1
    53    28    29    2
    54    28    52    1
@<TRIPOS>SUBSTRUCTURE
     1 ZINC000671418508        1 TEMP              0 ****  ****    0 ROOT


##########                                Name:     oleObject27.pdb
##########                DOCK_Rotatable_Bonds:                   9
##########                         Heavy_Atoms:                  35
##########                    Molecular_Weight:             513.466
##########                DOCK_Rotatable_Bonds:                   9
##########                       Formal_Charge:         0.000199873
##########                     HBond_Acceptors:                   8
##########                        HBond_Donors:                   1
##########                         Heavy_Atoms:                  35
##########                          Grid_Score:          -33.260361
##########                     Grid_vdw_energy:          -32.643417
##########                      Grid_es_energy:           -0.616942
##########           Internal_energy_repulsive:           13.507287

@<TRIPOS>MOLECULE
oleObject27.pdb
 65 68 1 0 0
SMALL
NO_CHARGES


@<TRIPOS>ATOM
      1 C           3.0110    0.1708   57.2911 C.ar    1  UNL        -0.0620
      2 C           2.2326    1.0843   58.0165 C.ar    1  UNL        -0.0590
      3 C           1.5354    2.1167   57.3595 C.ar    1  UNL        -0.0456
      4 C           1.6150    2.2302   55.9491 C.ar    1  UNL        -0.0187
      5 C           2.4117    1.3095   55.2335 C.ar    1  UNL        -0.0565
      6 C           3.1031    0.2859   55.8981 C.ar    1  UNL        -0.0619
      7 C           0.8666    3.3427   55.1979 C.3     1  UNL         0.0921
      8 C           1.2540    3.4201   53.7178 C.ar    1  UNL         0.0681
      9 C           2.3903    4.1405   53.2718 C.ar    1  UNL        -0.0272
     10 C           2.6641    4.1681   51.8913 C.ar    1  UNL        -0.0559
     11 C           1.8045    3.4959   51.0102 C.ar    1  UNL        -0.0435
     12 C           0.6934    2.8216   51.5383 C.ar    1  UNL         0.0272
     13 N           0.4231    2.7887   52.8567 N.ar    1  UNL        -0.2587
     14 C           3.3085    4.8898   54.2307 C.3     1  UNL        -0.0379
     15 N          -0.5936    3.2464   55.3383 N.am    1  UNL        -0.2865
     16 C          -1.4334    4.3394   55.4547 C.2     1  UNL         0.3014
     17 O          -1.0062    5.4820   55.4529 O.2     1  UNL        -0.2541
     18 N          -2.7922    4.0437   55.5789 N.am    1  UNL        -0.2833
     19 C          -3.3043    2.6461   55.5857 C.3     1  UNL         0.0284
     20 C          -4.8301    2.5080   55.3632 C.3     1  UNL         0.0142
     21 N          -5.6079    3.4568   56.1787 N.4     1  UNL        -0.2979
     22 C          -5.2051    4.8359   55.8391 C.3     1  UNL         0.0142
     23 C          -3.7036    5.0883   56.1073 C.3     1  UNL         0.0284
     24 C          -5.6043    3.1206   57.6228 C.3     1  UNL         0.0223
     25 C          -6.3743    1.8248   57.9480 C.3     1  UNL         0.0661
     26 O          -7.7609    2.0540   57.6421 O.3     1  UNL        -0.3432
     27 C          -8.6190    1.0673   57.1960 C.ar    1  UNL         0.0937
     28 C          -8.9456    0.9204   55.8308 C.ar    1  UNL        -0.0288
     29 C          -9.8228   -0.0970   55.4195 C.ar    1  UNL        -0.0408
     30 C         -10.3781   -0.9721   56.3662 C.ar    1  UNL         0.0422
     31 C         -10.0580   -0.8327   57.7257 C.ar    1  UNL        -0.0221
     32 C          -9.1810    0.1836   58.1400 C.ar    1  UNL         0.0723
     33 CL         -8.8019    0.3308   59.8460 Cl      1  UNL        -0.0814
     34 CL        -11.4708   -2.2389   55.8504 Cl      1  UNL        -0.0843
     35 C           0.7168    3.0929   58.1979 C.3     1  UNL        -0.0394
     36 H           3.5458   -0.6206   57.8086 H       1  UNL         0.0623
     37 H           2.1742    0.9891   59.0971 H       1  UNL         0.0626
     38 H           2.5052    1.3872   54.1544 H       1  UNL         0.0627
     39 H           3.7108   -0.4150   55.3333 H       1  UNL         0.0623
     40 H           1.1487    4.2876   55.6714 H       1  UNL         0.0625
     41 H           3.5262    4.7052   51.5058 H       1  UNL         0.0627
     42 H           1.9913    3.5017   49.9405 H       1  UNL         0.0639
     43 H          -0.0012    2.2918   50.8876 H       1  UNL         0.0840
     44 H           2.7384    5.5781   54.8674 H       1  UNL         0.0280
     45 H           4.0555    5.4866   53.6925 H       1  UNL         0.0280
     46 H           3.8509    4.1935   54.8821 H       1  UNL         0.0280
     47 H          -1.0035    2.3248   55.3945 H       1  UNL         0.1521
     48 H          -3.0438    2.1953   56.5519 H       1  UNL         0.0484
     49 H          -2.8055    2.0633   54.8016 H       1  UNL         0.0484
     50 H          -5.1394    1.4769   55.5768 H       1  UNL         0.0447
     51 H          -5.0401    2.6959   54.3021 H       1  UNL         0.0447
     52 H          -5.8058    5.5711   56.3871 H       1  UNL         0.0447
     53 H          -5.3933    5.0063   54.7711 H       1  UNL         0.0447
     54 H          -3.5419    5.1620   57.1901 H       1  UNL         0.0484
     55 H          -3.4366    6.0585   55.6689 H       1  UNL         0.0484
     56 H          -6.0322    3.9425   58.2107 H       1  UNL         0.0455
     57 H          -4.5671    2.9859   57.9558 H       1  UNL         0.0455
     58 H          -6.2531    1.5838   59.0119 H       1  UNL         0.0586
     59 H          -5.9897    0.9945   57.3434 H       1  UNL         0.0586
     60 H          -8.5276    1.5851   55.0818 H       1  UNL         0.0652
     61 H         -10.0710   -0.2059   54.3675 H       1  UNL         0.0639
     62 H         -10.4882   -1.5105   58.4576 H       1  UNL         0.0655
     63 H           0.8508    2.9167   59.2724 H       1  UNL         0.0280
     64 H          -0.3545    2.9960   57.9820 H       1  UNL         0.0280
     65 H           1.0141    4.1302   58.0003 H       1  UNL         0.0280
@<TRIPOS>BOND
     1     1     2   ar
     2     1     6   ar
     3     1    36    1
     4     2     3   ar
     5     2    37    1
     6     3     4   ar
     7     3    35    1
     8     4     5   ar
     9     4     7    1
    10     5     6   ar
    11     5    38    1
    12     6    39    1
    13     7     8    1
    14     7    15    1
    15     7    40    1
    16     8     9   ar
    17     8    13   ar
    18     9    10   ar
    19     9    14    1
    20    10    11   ar
    21    10    41    1
    22    11    12   ar
    23    11    42    1
    24    12    13   ar
    25    12    43    1
    26    14    44    1
    27    14    45    1
    28    14    46    1
    29    15    16   am
    30    15    47    1
    31    16    17    2
    32    16    18   am
    33    18    19    1
    34    18    23    1
    35    19    20    1
    36    19    48    1
    37    19    49    1
    38    20    21    1
    39    20    50    1
    40    20    51    1
    41    21    22    1
    42    21    24    1
    43    22    23    1
    44    22    52    1
    45    22    53    1
    46    23    54    1
    47    23    55    1
    48    24    25    1
    49    24    56    1
    50    24    57    1
    51    25    26    1
    52    25    58    1
    53    25    59    1
    54    26    27    1
    55    27    28   ar
    56    27    32   ar
    57    28    29   ar
    58    28    60    1
    59    29    30   ar
    60    29    61    1
    61    30    31   ar
    62    30    34    1
    63    31    32   ar
    64    31    62    1
    65    32    33    1
    66    35    63    1
    67    35    64    1
    68    35    65    1
@<TRIPOS>SUBSTRUCTURE
     1 UNL         1 TEMP              0 ****  ****    0 ROOT


##########                                Name:    ZINC000962730513
##########                DOCK_Rotatable_Bonds:                   6
##########                         Heavy_Atoms:                  24
##########                    Molecular_Weight:             342.465
##########                DOCK_Rotatable_Bonds:                   6
##########                       Formal_Charge:         -0.00999998
##########                     HBond_Acceptors:                   6
##########                        HBond_Donors:                   1
##########                         Heavy_Atoms:                  24
##########                          Grid_Score:          -33.245033
##########                     Grid_vdw_energy:          -32.017693
##########                      Grid_es_energy:           -1.227341
##########           Internal_energy_repulsive:           25.089754

@<TRIPOS>MOLECULE
ZINC000962730513
 46 49 1 0 0
SMALL
USER_CHARGES


@<TRIPOS>ATOM
      1 C1          0.0487    4.1066   51.3251 C.3     1  ZINC000962730513   -0.1400
      2 C2         -1.2360    4.8778   51.0154 C.3     1  ZINC000962730513   -0.0800
      3 C3         -2.3627    4.3353   51.8564 C.2     1  ZINC000962730513   -0.0100
      4 C4         -3.1373    3.2742   51.4803 C.2     1  ZINC000962730513   -0.2800
      5 C5         -2.9959    2.5181   50.2324 C.2     1  ZINC000962730513    0.6000
      6 O6         -3.7763    1.6211   49.9726 O.2     1  ZINC000962730513   -0.5200
      7 N7         -2.0016    2.8165   49.3729 N.am    1  ZINC000962730513   -0.7000
      8 C8         -1.8592    2.0597   48.1266 C.3     1  ZINC000962730513    0.1200
      9 H9         -2.4872    1.1729   48.0413 H       1  ZINC000962730513    0.1400
     10 C10        -0.4684    2.0025   47.4914 C.3     1  ZINC000962730513   -0.1700
     11 H11         0.3767    2.4589   48.0068 H       1  ZINC000962730513    0.1200
     12 C12        -0.1682    0.8591   46.4987 C.3     1  ZINC000962730513    0.0700
     13 N13        -0.6213    1.3774   45.1823 N.3     1  ZINC000962730513   -0.5000
     14 C14        -0.8693    0.2777   44.2404 C.3     1  ZINC000962730513    0.1100
     15 C15         0.2126    0.2611   43.1915 C.ar    1  ZINC000962730513    0.3200
     16 N16         0.0396   -0.4616   42.1030 N.ar    1  ZINC000962730513   -0.5100
     17 C17         0.9678   -0.5005   41.1605 C.ar    1  ZINC000962730513    0.1500
     18 C18         2.1322    0.2317   41.3304 C.ar    1  ZINC000962730513   -0.1900
     19 C19         3.2139    0.2154   40.2812 C.3     1  ZINC000962730513   -0.1100
     20 C20         2.2777    0.9795   42.4882 C.ar    1  ZINC000962730513    0.1500
     21 N21         1.3042    0.9739   43.3846 N.ar    1  ZINC000962730513   -0.5000
     22 C22        -1.8778    2.1078   45.4906 C.3     1  ZINC000962730513    0.0700
     23 C23        -1.5814    2.8527   46.8480 C.3     1  ZINC000962730513   -0.1700
     24 H24        -1.5736    3.9426   46.8348 H       1  ZINC000962730513    0.1300
     25 S25        -4.3305    2.9609   52.7332 S.3     1  ZINC000962730513    0.1900
     26 C26        -3.7395    4.2488   53.6835 C.2     1  ZINC000962730513   -0.2200
     27 C27        -2.7097    4.8549   53.0808 C.2     1  ZINC000962730513   -0.1500
     28 H28         0.2956    4.2210   52.3806 H       1  ZINC000962730513    0.0600
     29 H29        -0.0979    3.0506   51.0986 H       1  ZINC000962730513    0.0500
     30 H30         0.8636    4.4990   50.7168 H       1  ZINC000962730513    0.0600
     31 H31        -1.0893    5.9339   51.2419 H       1  ZINC000962730513    0.1000
     32 H32        -1.4828    4.7635   49.9599 H       1  ZINC000962730513    0.0700
     33 H33        -1.3804    3.5322   49.5795 H       1  ZINC000962730513    0.4000
     34 H34         0.9006    0.6462   46.4758 H       1  ZINC000962730513    0.0900
     35 H35        -0.7292   -0.0357   46.7684 H       1  ZINC000962730513    0.0500
     36 H36        -0.8674   -0.6697   44.7794 H       1  ZINC000962730513    0.1000
     37 H37        -1.8377    0.4212   43.7612 H       1  ZINC000962730513    0.0700
     38 H38         0.8199   -1.0951   40.2711 H       1  ZINC000962730513    0.1700
     39 H39         3.0363    1.0166   39.5639 H       1  ZINC000962730513    0.0800
     40 H40         4.1836    0.3621   40.7569 H       1  ZINC000962730513    0.0700
     41 H41         3.2042   -0.7441   39.7642 H       1  ZINC000962730513    0.0700
     42 H42         3.1718    1.5619   42.6548 H       1  ZINC000962730513    0.1700
     43 H43        -2.0962    2.8353   44.7088 H       1  ZINC000962730513    0.0800
     44 H44        -2.7062    1.4085   45.6026 H       1  ZINC000962730513    0.0600
     45 H45        -4.1402    4.5342   54.6449 H       1  ZINC000962730513    0.1700
     46 H46        -2.1943    5.6959   53.5206 H       1  ZINC000962730513    0.1500
@<TRIPOS>BOND
     1     1     2    1
     2     1    28    1
     3     1    29    1
     4     1    30    1
     5     2     3    1
     6     2    31    1
     7     2    32    1
     8     3    27    1
     9     3     4    2
    10     4     5    1
    11     4    25    1
    12     5     6    2
    13     5     7   am
    14     7     8    1
    15     7    33    1
    16     8     9    1
    17     8    23    1
    18     8    10    1
    19    10    11    1
    20    10    23    1
    21    10    12    1
    22    12    13    1
    23    12    34    1
    24    12    35    1
    25    13    14    1
    26    13    22    1
    27    14    15    1
    28    14    36    1
    29    14    37    1
    30    15    21   ar
    31    15    16   ar
    32    16    17   ar
    33    17    18   ar
    34    17    38    1
    35    18    19    1
    36    18    20   ar
    37    19    39    1
    38    19    40    1
    39    19    41    1
    40    20    21   ar
    41    20    42    1
    42    22    23    1
    43    22    43    1
    44    22    44    1
    45    23    24    1
    46    25    26    1
    47    26    27    2
    48    26    45    1
    49    27    46    1
@<TRIPOS>SUBSTRUCTURE
     1 ZINC000962730513        1 TEMP              0 ****  ****    0 ROOT


##########                                Name:    ZINC000265724350
##########                DOCK_Rotatable_Bonds:                   8
##########                         Heavy_Atoms:                  23
##########                    Molecular_Weight:              345.42
##########                DOCK_Rotatable_Bonds:                   8
##########                       Formal_Charge:          -0.0300002
##########                     HBond_Acceptors:                   9
##########                        HBond_Donors:                   2
##########                         Heavy_Atoms:                  23
##########                          Grid_Score:          -33.236988
##########                     Grid_vdw_energy:          -31.344791
##########                      Grid_es_energy:           -1.892197
##########           Internal_energy_repulsive:            7.396026

@<TRIPOS>MOLECULE
ZINC000265724350
 46 47 1 0 0
SMALL
USER_CHARGES


@<TRIPOS>ATOM
      1 C1         -5.2014    4.4608   57.9005 C.3     1  ZINC000265724350    0.0800
      2 N2         -6.2927    4.0500   57.0135 N.am    1  ZINC000265724350   -1.1100
      3 S3         -6.1453    2.6759   56.1011 S.o2    1  ZINC000265724350    2.7200
      4 O4         -5.8116    1.6295   57.0027 O.2     1  ZINC000265724350   -0.9300
      5 O5         -7.2825    2.6354   55.2501 O.2     1  ZINC000265724350   -0.9300
      6 C6         -4.7464    2.8939   55.0522 C.2     1  ZINC000265724350   -0.5600
      7 C7         -3.4981    2.4401   55.3009 C.2     1  ZINC000265724350   -0.0900
      8 C8         -2.6942    2.8277   54.2174 C.2     1  ZINC000265724350   -0.1400
      9 C9         -3.5030    3.5069   53.3518 C.2     1  ZINC000265724350   -0.0200
     10 C10        -3.0928    4.1005   52.0750 C.2     1  ZINC000265724350    0.6000
     11 O11        -3.8499    4.8435   51.4783 O.2     1  ZINC000265724350   -0.5000
     12 N12        -1.8776    3.8233   51.5624 N.am    1  ZINC000265724350   -0.7100
     13 C13        -1.4673    4.4177   50.2877 C.3     1  ZINC000265724350    0.1200
     14 C14        -0.7882    3.3531   49.4238 C.3     1  ZINC000265724350   -0.1100
     15 H15        -0.4389    3.8065   48.4962 H       1  ZINC000265724350    0.0800
     16 C16         0.4020    2.7633   50.1830 C.3     1  ZINC000265724350   -0.1400
     17 C17        -1.7897    2.2419   49.1028 C.3     1  ZINC000265724350    0.0600
     18 N18        -1.2930    1.4469   47.9717 N.3     1  ZINC000265724350   -0.5300
     19 C19        -2.0996    1.6849   46.7659 C.3     1  ZINC000265724350    0.0100
     20 C20        -1.5128    0.8851   45.5998 C.3     1  ZINC000265724350    0.0600
     21 O21        -1.4647   -0.4995   45.9544 O.3     1  ZINC000265724350   -0.3900
     22 C22        -0.6869   -0.7677   47.1242 C.3     1  ZINC000265724350    0.0600
     23 C23        -1.2653    0.0154   48.3057 C.3     1  ZINC000265724350    0.0200
     24 O24        -4.7465    3.5314   53.8744 O.3     1  ZINC000265724350   -0.1100
     25 H25        -5.4783    5.3810   58.4150 H       1  ZINC000265724350    0.0900
     26 H26        -5.0146    3.6765   58.6340 H       1  ZINC000265724350    0.0600
     27 H27        -4.2995    4.6306   57.3124 H       1  ZINC000265724350    0.0700
     28 H28        -7.1015    4.5829   56.9606 H       1  ZINC000265724350    0.4200
     29 H29        -3.1789    1.8839   56.1698 H       1  ZINC000265724350    0.1800
     30 H30        -1.6403    2.6277   54.0927 H       1  ZINC000265724350    0.1700
     31 H31        -1.2747    3.2302   52.0373 H       1  ZINC000265724350    0.4100
     32 H32        -2.3442    4.8028   49.7674 H       1  ZINC000265724350    0.0800
     33 H33        -0.7688    5.2332   50.4753 H       1  ZINC000265724350    0.0700
     34 H34         1.1155    3.5550   50.4118 H       1  ZINC000265724350    0.0500
     35 H35         0.0527    2.3099   51.1107 H       1  ZINC000265724350    0.0600
     36 H36         0.8858    2.0049   49.5676 H       1  ZINC000265724350    0.0700
     37 H37        -1.9099    1.5982   49.9742 H       1  ZINC000265724350    0.0800
     38 H38        -2.7514    2.6837   48.8419 H       1  ZINC000265724350    0.0400
     39 H39        -3.1262    1.3660   46.9459 H       1  ZINC000265724350    0.0400
     40 H40        -2.0853    2.7473   46.5223 H       1  ZINC000265724350    0.0900
     41 H41        -2.1405    1.0135   44.7180 H       1  ZINC000265724350    0.1000
     42 H42        -0.5051    1.2410   45.3849 H       1  ZINC000265724350    0.0600
     43 H43        -0.7173   -1.8346   47.3448 H       1  ZINC000265724350    0.1000
     44 H44         0.3448   -0.4599   46.9536 H       1  ZINC000265724350    0.0600
     45 H45        -0.6420   -0.1409   49.1861 H       1  ZINC000265724350    0.0900
     46 H46        -2.2786   -0.3302   48.5103 H       1  ZINC000265724350    0.0400
@<TRIPOS>BOND
     1     1     2    1
     2     1    25    1
     3     1    26    1
     4     1    27    1
     5     2     3   am
     6     2    28    1
     7     3     4    2
     8     3     5    2
     9     3     6    1
    10     6    24    1
    11     6     7    2
    12     7     8    1
    13     7    29    1
    14     8     9    2
    15     8    30    1
    16     9    10    1
    17     9    24    1
    18    10    11    2
    19    10    12   am
    20    12    13    1
    21    12    31    1
    22    13    14    1
    23    13    32    1
    24    13    33    1
    25    14    15    1
    26    14    16    1
    27    14    17    1
    28    16    34    1
    29    16    35    1
    30    16    36    1
    31    17    18    1
    32    17    37    1
    33    17    38    1
    34    18    23    1
    35    18    19    1
    36    19    20    1
    37    19    39    1
    38    19    40    1
    39    20    21    1
    40    20    41    1
    41    20    42    1
    42    21    22    1
    43    22    23    1
    44    22    43    1
    45    22    44    1
    46    23    45    1
    47    23    46    1
@<TRIPOS>SUBSTRUCTURE
     1 ZINC000265724350        1 TEMP              0 ****  ****    0 ROOT


##########                                Name:    ZINC000621594459
##########                DOCK_Rotatable_Bonds:                  10
##########                         Heavy_Atoms:                  25
##########                    Molecular_Weight:             389.497
##########                DOCK_Rotatable_Bonds:                  10
##########                       Formal_Charge:         -7.7486e-07
##########                     HBond_Acceptors:                  10
##########                        HBond_Donors:                   3
##########                         Heavy_Atoms:                  25
##########                          Grid_Score:          -33.147362
##########                     Grid_vdw_energy:          -32.868507
##########                      Grid_es_energy:           -0.278854
##########           Internal_energy_repulsive:           10.405798

@<TRIPOS>MOLECULE
ZINC000621594459
 48 49 1 0 0
SMALL
USER_CHARGES


@<TRIPOS>ATOM
      1 C1          3.0751    0.3790   47.7614 C.3     1  ZINC000621594459   -0.1600
      2 C2          1.7851    1.1916   47.8907 C.3     1  ZINC000621594459    0.1300
      3 C3          2.0033    2.5905   47.3109 C.3     1  ZINC000621594459   -0.1800
      4 N4          0.7097    0.5207   47.1561 N.am    1  ZINC000621594459   -1.1100
      5 S5         -0.3531   -0.4631   47.9591 S.o2    1  ZINC000621594459    2.6200
      6 O6         -1.2900   -0.8528   46.9643 O.2     1  ZINC000621594459   -0.9500
      7 O7          0.4748   -1.4227   48.6017 O.2     1  ZINC000621594459   -0.9400
      8 C8         -1.1380    0.6218   49.1828 C.3     1  ZINC000621594459   -0.6600
      9 C9         -1.8048    1.7987   48.4677 C.3     1  ZINC000621594459    0.1300
     10 N10        -2.1822    2.8170   49.4509 N.am    1  ZINC000621594459   -0.7200
     11 C11        -3.2350    2.6090   50.2662 C.2     1  ZINC000621594459    0.5600
     12 O12        -3.8705    1.5759   50.1868 O.2     1  ZINC000621594459   -0.5200
     13 C13        -3.6171    3.6375   51.2573 C.ar    1  ZINC000621594459   -0.1500
     14 C14        -3.2290    4.9655   51.0741 C.ar    1  ZINC000621594459   -0.0300
     15 C15        -3.5892    5.9206   52.0025 C.ar    1  ZINC000621594459   -0.1400
     16 C16        -4.3330    5.5640   53.1132 C.ar    1  ZINC000621594459    0.0100
     17 C17        -4.7205    4.2490   53.3009 C.ar    1  ZINC000621594459   -0.6800
     18 S18        -5.6671    3.8055   54.7194 S.o2    1  ZINC000621594459    2.7000
     19 O19        -5.7138    4.9593   55.5475 O.2     1  ZINC000621594459   -0.9400
     20 O20        -6.8305    3.1481   54.2359 O.2     1  ZINC000621594459   -0.9500
     21 N21        -4.7988    2.6672   55.5518 N.am    1  ZINC000621594459   -1.0900
     22 C22        -3.4640    2.9920   56.0608 C.3     1  ZINC000621594459    0.0800
     23 C23        -2.5251    1.8258   56.3759 C.3     1  ZINC000621594459   -0.1800
     24 C24        -2.2704    2.7026   55.1483 C.3     1  ZINC000621594459   -0.1900
     25 C25        -4.3723    3.2856   52.3773 C.ar    1  ZINC000621594459    0.0400
     26 H26         3.8752    0.8782   48.3080 H       1  ZINC000621594459    0.0700
     27 H27         2.9196   -0.6176   48.1745 H       1  ZINC000621594459    0.0700
     28 H28         3.3494    0.2977   46.7097 H       1  ZINC000621594459    0.0600
     29 H29         1.5108    1.2729   48.9425 H       1  ZINC000621594459    0.0900
     30 H30         2.2775    2.5092   46.2591 H       1  ZINC000621594459    0.0700
     31 H31         1.0842    3.1693   47.4028 H       1  ZINC000621594459    0.0600
     32 H32         2.8034    3.0897   47.8574 H       1  ZINC000621594459    0.0700
     33 H33         0.6203    0.6528   46.1992 H       1  ZINC000621594459    0.4200
     34 H34        -1.8899    0.0601   49.7370 H       1  ZINC000621594459    0.1400
     35 H35        -0.3826    0.9970   49.8732 H       1  ZINC000621594459    0.1400
     36 H36        -1.1079    2.2288   47.7484 H       1  ZINC000621594459    0.0900
     37 H37        -2.6958    1.4492   47.9461 H       1  ZINC000621594459    0.0900
     38 H38        -1.6744    3.6409   49.5151 H       1  ZINC000621594459    0.4000
     39 H39        -2.6478    5.2450   50.2078 H       1  ZINC000621594459    0.1300
     40 H40        -3.2897    6.9486   51.8621 H       1  ZINC000621594459    0.1400
     41 H41        -4.6120    6.3153   53.8371 H       1  ZINC000621594459    0.1500
     42 H42        -5.1741    1.7855   55.7024 H       1  ZINC000621594459    0.4200
     43 H43        -3.4064    3.8722   56.7010 H       1  ZINC000621594459    0.1400
     44 H44        -1.8496    1.9385   57.2240 H       1  ZINC000621594459    0.1100
     45 H45        -2.9006    0.8169   56.2047 H       1  ZINC000621594459    0.1000
     46 H46        -2.4783    2.2706   54.1694 H       1  ZINC000621594459    0.1000
     47 H47        -1.4273    3.3923   55.1886 H       1  ZINC000621594459    0.1000
     48 H48        -4.6757    2.2596   52.5247 H       1  ZINC000621594459    0.1600
@<TRIPOS>BOND
     1     1     2    1
     2     1    26    1
     3     1    27    1
     4     1    28    1
     5     2     3    1
     6     2     4    1
     7     2    29    1
     8     3    30    1
     9     3    31    1
    10     3    32    1
    11     4     5   am
    12     4    33    1
    13     5     6    2
    14     5     7    2
    15     5     8    1
    16     8     9    1
    17     8    34    1
    18     8    35    1
    19     9    10    1
    20     9    36    1
    21     9    37    1
    22    10    11   am
    23    10    38    1
    24    11    12    2
    25    11    13    1
    26    13    25   ar
    27    13    14   ar
    28    14    15   ar
    29    14    39    1
    30    15    16   ar
    31    15    40    1
    32    16    17   ar
    33    16    41    1
    34    17    18    1
    35    17    25   ar
    36    18    19    2
    37    18    20    2
    38    18    21   am
    39    21    22    1
    40    21    42    1
    41    22    24    1
    42    22    23    1
    43    22    43    1
    44    23    24    1
    45    23    44    1
    46    23    45    1
    47    24    46    1
    48    24    47    1
    49    25    48    1
@<TRIPOS>SUBSTRUCTURE
     1 ZINC000621594459        1 TEMP              0 ****  ****    0 ROOT


##########                                Name:    ZINC000563265674
##########                DOCK_Rotatable_Bonds:                   7
##########                         Heavy_Atoms:                  25
##########                    Molecular_Weight:             386.859
##########                DOCK_Rotatable_Bonds:                   7
##########                       Formal_Charge:          0.00999963
##########                     HBond_Acceptors:                  10
##########                        HBond_Donors:                   2
##########                         Heavy_Atoms:                  25
##########                          Grid_Score:          -33.123989
##########                     Grid_vdw_energy:          -32.539909
##########                      Grid_es_energy:           -0.584079
##########           Internal_energy_repulsive:           15.013808

@<TRIPOS>MOLECULE
ZINC000563265674
 44 45 1 0 0
SMALL
USER_CHARGES


@<TRIPOS>ATOM
      1 C1         -0.7473    2.8852   56.5313 C.3     1  ZINC000563265674   -0.0600
      2 C2         -2.0644    2.7351   55.8146 C.2     1  ZINC000563265674    0.1700
      3 N3         -2.8913    1.7389   55.9261 N.2     1  ZINC000563265674   -0.3800
      4 O4         -3.8610    1.9172   55.2195 O.3     1  ZINC000563265674    0.0900
      5 C5         -3.7411    3.0794   54.5706 C.2     1  ZINC000563265674    0.1900
      6 C6         -4.7284    3.6696   53.5969 C.3     1  ZINC000563265674    0.2100
      7 C7         -6.0563    2.9162   53.6974 C.3     1  ZINC000563265674   -0.1400
      8 C8         -4.9531    5.1458   53.9303 C.3     1  ZINC000563265674   -0.1800
      9 N9         -4.2002    3.5508   52.2314 N.3     1  ZINC000563265674   -0.6600
     10 C10        -3.1489    4.5469   51.9851 C.3     1  ZINC000563265674    0.0400
     11 C11        -2.2561    4.0695   50.8688 C.2     1  ZINC000563265674    0.5200
     12 O12        -1.0601    3.9749   51.0471 O.2     1  ZINC000563265674   -0.4900
     13 N13        -2.7866    3.7477   49.6724 N.am    1  ZINC000563265674   -0.6700
     14 C14        -1.9573    3.3042   48.6355 C.ar    1  ZINC000563265674    0.1400
     15 C15        -1.7672    1.9446   48.4300 C.ar    1  ZINC000563265674   -0.0300
     16 C16        -0.9485    1.5099   47.4055 C.ar    1  ZINC000563265674   -0.6400
     17 S17        -0.7073   -0.2158   47.1441 S.o2    1  ZINC000563265674    2.5000
     18 C18        -1.0557   -0.4594   45.3805 C.3     1  ZINC000563265674   -0.6500
     19 O19         0.6728   -0.4215   47.4128 O.2     1  ZINC000563265674   -0.9300
     20 O20        -1.7089   -0.8342   47.9402 O.2     1  ZINC000563265674   -0.9300
     21 C21        -0.3185    2.4271   46.5850 C.ar    1  ZINC000563265674   -0.0300
     22 C22        -0.5049    3.7826   46.7866 C.ar    1  ZINC000563265674   -0.1100
     23 C23        -1.3269    4.2241   47.8059 C.ar    1  ZINC000563265674   -0.0200
     24 Cl24       -1.5612    5.9256   48.0583 Cl      1  ZINC000563265674   -0.0500
     25 N25        -2.6025    3.6102   54.9466 N.2     1  ZINC000563265674   -0.4700
     26 H26        -0.9062    3.3979   57.4801 H       1  ZINC000563265674    0.0900
     27 H27        -0.3208    1.8996   56.7180 H       1  ZINC000563265674    0.0900
     28 H28        -0.0621    3.4667   55.9144 H       1  ZINC000563265674    0.0900
     29 H29        -6.4482    3.0043   54.7107 H       1  ZINC000563265674    0.0800
     30 H30        -6.7704    3.3431   52.9932 H       1  ZINC000563265674    0.0800
     31 H31        -5.8962    1.8646   53.4600 H       1  ZINC000563265674    0.0700
     32 H32        -4.0072    5.6826   53.8587 H       1  ZINC000563265674    0.0700
     33 H33        -5.6672    5.5727   53.2261 H       1  ZINC000563265674    0.0800
     34 H34        -5.3450    5.2340   54.9436 H       1  ZINC000563265674    0.0800
     35 H35        -3.8618    2.6168   52.0545 H       1  ZINC000563265674    0.3600
     36 H36        -3.6060    5.4957   51.7042 H       1  ZINC000563265674    0.1200
     37 H37        -2.5575    4.6825   52.8906 H       1  ZINC000563265674    0.0800
     38 H38        -3.7430    3.8233   49.5298 H       1  ZINC000563265674    0.4200
     39 H39        -2.2585    1.2273   49.0706 H       1  ZINC000563265674    0.1700
     40 H40        -0.3668    0.1422   44.7876 H       1  ZINC000563265674    0.1300
     41 H41        -0.9294   -1.5120   45.1272 H       1  ZINC000563265674    0.1400
     42 H42        -2.0803   -0.1547   45.1671 H       1  ZINC000563265674    0.1400
     43 H43         0.3209    2.0842   45.7850 H       1  ZINC000563265674    0.1500
     44 H44        -0.0111    4.4966   46.1441 H       1  ZINC000563265674    0.1500
@<TRIPOS>BOND
     1     1     2    1
     2     1    26    1
     3     1    27    1
     4     1    28    1
     5     2    25    1
     6     2     3    2
     7     3     4    1
     8     4     5    1
     9     5     6    1
    10     5    25    2
    11     6     7    1
    12     6     8    1
    13     6     9    1
    14     7    29    1
    15     7    30    1
    16     7    31    1
    17     8    32    1
    18     8    33    1
    19     8    34    1
    20     9    10    1
    21     9    35    1
    22    10    11    1
    23    10    36    1
    24    10    37    1
    25    11    12    2
    26    11    13   am
    27    13    14    1
    28    13    38    1
    29    14    23   ar
    30    14    15   ar
    31    15    16   ar
    32    15    39    1
    33    16    17    1
    34    16    21   ar
    35    17    18    1
    36    17    19    2
    37    17    20    2
    38    18    40    1
    39    18    41    1
    40    18    42    1
    41    21    22   ar
    42    21    43    1
    43    22    23   ar
    44    22    44    1
    45    23    24    1
@<TRIPOS>SUBSTRUCTURE
     1 ZINC000563265674        1 TEMP              0 ****  ****    0 ROOT


##########                                Name:    ZINC000481838178
##########                DOCK_Rotatable_Bonds:                   6
##########                         Heavy_Atoms:                  29
##########                    Molecular_Weight:             408.524
##########                DOCK_Rotatable_Bonds:                   6
##########                       Formal_Charge:         -0.00999962
##########                     HBond_Acceptors:                   7
##########                        HBond_Donors:                   0
##########                         Heavy_Atoms:                  29
##########                          Grid_Score:          -33.123371
##########                     Grid_vdw_energy:          -32.327557
##########                      Grid_es_energy:           -0.795814
##########           Internal_energy_repulsive:            7.058855

@<TRIPOS>MOLECULE
ZINC000481838178
 53 57 1 0 0
SMALL
USER_CHARGES


@<TRIPOS>ATOM
      1 O1         -1.1465    5.2581   49.7312 O.2     1  ZINC000481838178   -0.5200
      2 C2         -1.5465    4.1218   49.5909 C.2     1  ZINC000481838178    0.5500
      3 C3         -2.5607    3.5560   50.5512 C.3     1  ZINC000481838178   -0.1500
      4 S4         -1.9369    3.7037   52.2438 S.3     1  ZINC000481838178    0.1000
      5 C5         -3.4069    3.3399   53.1446 C.2     1  ZINC000481838178    0.1600
      6 N6         -4.5932    3.0962   52.6346 N.2     1  ZINC000481838178   -0.2800
      7 N7         -5.4416    2.8694   53.5726 N.2     1  ZINC000481838178   -0.2500
      8 C8         -4.8501    2.9539   54.7444 C.2     1  ZINC000481838178    0.2700
      9 C9         -5.4808    2.7604   56.0589 C.2     1  ZINC000481838178    0.0300
     10 C10        -5.1842    3.4477   57.1979 C.2     1  ZINC000481838178   -0.1300
     11 C11        -6.0235    2.9393   58.2081 C.2     1  ZINC000481838178   -0.2100
     12 C12        -6.7830    1.9784   57.6453 C.2     1  ZINC000481838178   -0.0100
     13 O13        -6.4570    1.8767   56.3461 O.3     1  ZINC000481838178   -0.1700
     14 N14        -3.5246    3.2527   54.5059 N.pl3   1  ZINC000481838178   -0.4100
     15 C15        -2.5125    3.4371   55.4579 C.ar    1  ZINC000481838178    0.1000
     16 C16        -2.0519    2.3588   56.2013 C.ar    1  ZINC000481838178   -0.0800
     17 C17        -1.0546    2.5437   57.1388 C.ar    1  ZINC000481838178   -0.1100
     18 C18        -0.5149    3.8012   57.3373 C.ar    1  ZINC000481838178   -0.1000
     19 C19        -0.9716    4.8772   56.5984 C.ar    1  ZINC000481838178   -0.1100
     20 C20        -1.9647    4.6974   55.6554 C.ar    1  ZINC000481838178   -0.0900
     21 N21        -1.0881    3.3668   48.5728 N.am    1  ZINC000481838178   -0.6200
     22 C22        -1.4964    1.9685   48.2719 C.3     1  ZINC000481838178    0.1000
     23 C23        -1.2307    1.8435   46.7670 C.3     1  ZINC000481838178   -0.1100
     24 H24        -1.9889    2.3740   46.1909 H       1  ZINC000481838178    0.0900
     25 C25        -1.0326    0.4363   46.2358 C.3     1  ZINC000481838178   -0.1100
     26 C26        -0.6675    0.5625   44.7473 C.3     1  ZINC000481838178   -0.1200
     27 C27         0.5790    1.4178   44.5439 C.3     1  ZINC000481838178   -0.1200
     28 C28         0.4373    2.7942   45.2157 C.3     1  ZINC000481838178   -0.1000
     29 C29         0.1487    2.5634   46.6811 C.3     1  ZINC000481838178   -0.1100
     30 H30         0.9141    1.9199   47.1149 H       1  ZINC000481838178    0.0900
     31 C31        -0.0938    3.7899   47.5555 C.3     1  ZINC000481838178    0.1200
     32 H32        -3.4960    4.1084   50.4592 H       1  ZINC000481838178    0.1300
     33 H33        -2.7349    2.5055   50.3186 H       1  ZINC000481838178    0.1300
     34 H34        -4.4477    4.2303   57.3051 H       1  ZINC000481838178    0.1600
     35 H35        -6.0529    3.2590   59.2391 H       1  ZINC000481838178    0.1600
     36 H36        -7.5328    1.3906   58.1539 H       1  ZINC000481838178    0.2100
     37 H37        -2.4734    1.3764   56.0470 H       1  ZINC000481838178    0.1300
     38 H38        -0.6961    1.7053   57.7175 H       1  ZINC000481838178    0.1400
     39 H39         0.2646    3.9434   58.0711 H       1  ZINC000481838178    0.1300
     40 H40        -0.5484    5.8583   56.7559 H       1  ZINC000481838178    0.1400
     41 H41        -2.3209    5.5382   55.0786 H       1  ZINC000481838178    0.1300
     42 H42        -0.8849    1.2601   48.8309 H       1  ZINC000481838178    0.0800
     43 H43        -2.5543    1.8211   48.4895 H       1  ZINC000481838178    0.0800
     44 H44        -0.2234   -0.0546   46.7766 H       1  ZINC000481838178    0.0700
     45 H45        -1.9543   -0.1353   46.3452 H       1  ZINC000481838178    0.0700
     46 H46        -0.4868   -0.4322   44.3399 H       1  ZINC000481838178    0.0600
     47 H47        -1.5020    1.0176   44.2138 H       1  ZINC000481838178    0.0600
     48 H48         1.4387    0.9006   44.9700 H       1  ZINC000481838178    0.0600
     49 H49         0.7435    1.5584   43.4756 H       1  ZINC000481838178    0.0700
     50 H50         1.3627    3.3592   45.1039 H       1  ZINC000481838178    0.0700
     51 H51        -0.3908    3.3430   44.7672 H       1  ZINC000481838178    0.0700
     52 H52        -0.4809    4.6113   46.9527 H       1  ZINC000481838178    0.0700
     53 H53         0.8305    4.0882   48.0502 H       1  ZINC000481838178    0.0700
@<TRIPOS>BOND
     1     1     2    2
     2     2     3    1
     3     2    21   am
     4     3     4    1
     5     3    32    1
     6     3    33    1
     7     4     5    1
     8     5    14    1
     9     5     6    2
    10     6     7    1
    11     7     8    2
    12     8     9    1
    13     8    14    1
    14     9    13    1
    15     9    10    2
    16    10    11    1
    17    10    34    1
    18    11    12    2
    19    11    35    1
    20    12    13    1
    21    12    36    1
    22    14    15    1
    23    15    20   ar
    24    15    16   ar
    25    16    17   ar
    26    16    37    1
    27    17    18   ar
    28    17    38    1
    29    18    19   ar
    30    18    39    1
    31    19    20   ar
    32    19    40    1
    33    20    41    1
    34    21    31    1
    35    21    22    1
    36    22    23    1
    37    22    42    1
    38    22    43    1
    39    23    24    1
    40    23    29    1
    41    23    25    1
    42    25    26    1
    43    25    44    1
    44    25    45    1
    45    26    27    1
    46    26    46    1
    47    26    47    1
    48    27    28    1
    49    27    48    1
    50    27    49    1
    51    28    29    1
    52    28    50    1
    53    28    51    1
    54    29    30    1
    55    29    31    1
    56    31    52    1
    57    31    53    1
@<TRIPOS>SUBSTRUCTURE
     1 ZINC000481838178        1 TEMP              0 ****  ****    0 ROOT


##########                                Name:    ZINC000266467123
##########                DOCK_Rotatable_Bonds:                   9
##########                         Heavy_Atoms:                  25
##########                    Molecular_Weight:             337.421
##########                DOCK_Rotatable_Bonds:                   9
##########                       Formal_Charge:                0.02
##########                     HBond_Acceptors:                   5
##########                        HBond_Donors:                   3
##########                         Heavy_Atoms:                  25
##########                          Grid_Score:          -33.112720
##########                     Grid_vdw_energy:          -30.943102
##########                      Grid_es_energy:           -2.169620
##########           Internal_energy_repulsive:           12.673295

@<TRIPOS>MOLECULE
ZINC000266467123
 48 50 1 0 0
SMALL
USER_CHARGES


@<TRIPOS>ATOM
      1 C1         -1.8406    4.7084   50.8202 C.3     1  <0>        -0.1600
      2 C2         -3.0694    3.7998   50.7482 C.3     1  <0>         0.1500
      3 H3         -3.9233    4.3717   50.3853 H       1  <0>         0.1200
      4 N4         -3.3661    3.2732   52.0828 N.am    1  <0>        -0.7300
      5 C5         -3.8467    4.0924   53.0391 C.2     1  <0>         0.7100
      6 O6         -4.0353    5.2682   52.7937 O.2     1  <0>        -0.5900
      7 N7         -4.1181    3.6082   54.2671 N.am    1  <0>        -0.7100
      8 C8         -4.6421    4.4983   55.3060 C.3     1  <0>         0.1100
      9 H9         -4.7848    5.5369   55.0074 H       1  <0>         0.1400
     10 C10        -4.2095    4.2314   56.7492 C.3     1  <0>        -0.1900
     11 C11        -5.6384    3.9077   56.3058 C.3     1  <0>        -0.1500
     12 H12        -6.4363    4.5576   56.6650 H       1  <0>         0.1200
     13 C13        -6.0111    2.4325   56.1448 C.3     1  <0>        -0.0500
     14 C14        -6.7009    1.9494   57.3947 C.ar    1  <0>        -0.0800
     15 C15        -6.3285    2.4514   58.6276 C.ar    1  <0>        -0.1100
     16 C16        -6.9613    2.0084   59.7740 C.ar    1  <0>        -0.1200
     17 C17        -7.9666    1.0635   59.6874 C.ar    1  <0>        -0.1200
     18 C18        -8.3395    0.5621   58.4543 C.ar    1  <0>        -0.1200
     19 C19        -7.7098    1.0084   57.3075 C.ar    1  <0>        -0.1200
     20 C20        -2.7939    2.6560   49.8066 C.2     1  <0>         0.5100
     21 O21        -3.3460    1.5887   49.9711 O.2     1  <0>        -0.5100
     22 N22        -1.9341    2.8191   48.7817 N.am    1  <0>        -0.6700
     23 C23        -1.6783    1.7570   47.9073 C.ar    1  <0>         0.1400
     24 C24        -2.1160    1.8187   46.5908 C.ar    1  <0>        -0.1400
     25 C25        -1.8619    0.7686   45.7303 C.ar    1  <0>        -0.1000
     26 C26        -1.1729   -0.3434   46.1785 C.ar    1  <0>        -0.1300
     27 C27        -0.7362   -0.4080   47.4889 C.ar    1  <0>        -0.1000
     28 C28        -0.9812    0.6415   48.3526 C.ar    1  <0>        -0.1200
     29 H29        -1.6198    5.1003   49.8274 H       1  <0>         0.0700
     30 H30        -2.0397    5.5358   51.5013 H       1  <0>         0.0800
     31 H31        -0.9866    4.1365   51.1832 H       1  <0>         0.0700
     32 H32        -3.2168    2.3349   52.2781 H       1  <0>         0.4100
     33 H33        -3.9664    2.6704   54.4632 H       1  <0>         0.4000
     34 H34        -3.5350    3.3935   56.9256 H       1  <0>         0.1000
     35 H35        -4.0679    5.0943   57.3999 H       1  <0>         0.1000
     36 H36        -6.6810    2.3178   55.2927 H       1  <0>         0.0800
     37 H37        -5.1078    1.8456   55.9784 H       1  <0>         0.0700
     38 H38        -5.5431    3.1896   58.6952 H       1  <0>         0.1200
     39 H39        -6.6698    2.4001   60.7373 H       1  <0>         0.1200
     40 H40        -8.4605    0.7168   60.5831 H       1  <0>         0.1200
     41 H41        -9.1248   -0.1763   58.3867 H       1  <0>         0.1200
     42 H42        -8.0011    0.6167   56.3442 H       1  <0>         0.1200
     43 H43        -1.4927    3.6726   48.6501 H       1  <0>         0.4100
     44 H44        -2.6547    2.6865   46.2404 H       1  <0>         0.1300
     45 H45        -2.2021    0.8160   44.7063 H       1  <0>         0.1300
     46 H46        -0.9758   -1.1633   45.5037 H       1  <0>         0.1200
     47 H47        -0.1990   -1.2782   47.8362 H       1  <0>         0.1300
     48 H48        -0.6399    0.5905   49.3760 H       1  <0>         0.1400
@<TRIPOS>BOND
     1     1     2    1
     2     1    29    1
     3     1    30    1
     4     1    31    1
     5     2     3    1
     6     2     4    1
     7     2    20    1
     8     4     5   am
     9     4    32    1
    10     5     6    2
    11     5     7   am
    12     7     8    1
    13     7    33    1
    14     8     9    1
    15     8    11    1
    16     8    10    1
    17    10    11    1
    18    10    34    1
    19    10    35    1
    20    11    12    1
    21    11    13    1
    22    13    14    1
    23    13    36    1
    24    13    37    1
    25    14    19   ar
    26    14    15   ar
    27    15    16   ar
    28    15    38    1
    29    16    17   ar
    30    16    39    1
    31    17    18   ar
    32    17    40    1
    33    18    19   ar
    34    18    41    1
    35    19    42    1
    36    20    21    2
    37    20    22   am
    38    22    23    1
    39    22    43    1
    40    23    28   ar
    41    23    24   ar
    42    24    25   ar
    43    24    44    1
    44    25    26   ar
    45    25    45    1
    46    26    27   ar
    47    26    46    1
    48    27    28   ar
    49    27    47    1
    50    28    48    1
@<TRIPOS>SUBSTRUCTURE
     1 <0>         1 TEMP              0 ****  ****    0 ROOT


##########                                Name:    ZINC000579444893
##########                DOCK_Rotatable_Bonds:                   8
##########                         Heavy_Atoms:                  26
##########                    Molecular_Weight:             365.494
##########                DOCK_Rotatable_Bonds:                   8
##########                       Formal_Charge:         -0.00999993
##########                     HBond_Acceptors:                   7
##########                        HBond_Donors:                   1
##########                         Heavy_Atoms:                  26
##########                          Grid_Score:          -33.098900
##########                     Grid_vdw_energy:          -31.484600
##########                      Grid_es_energy:           -1.614301
##########           Internal_energy_repulsive:           42.691711

@<TRIPOS>MOLECULE
ZINC000579444893
 58 60 1 0 0
SMALL
USER_CHARGES


@<TRIPOS>ATOM
      1 C1         -4.8438    3.0838   54.6133 C.3     1  ZINC000579444893   -0.1600
      2 C2         -3.3951    2.9025   54.1558 C.3     1  ZINC000579444893    0.1700
      3 H3         -3.1355    1.8442   54.1821 H       1  ZINC000579444893    0.0900
      4 N4         -3.2481    3.4074   52.7884 N.am    1  ZINC000579444893   -0.7400
      5 C5         -3.4318    4.7174   52.5304 C.2     1  ZINC000579444893    0.7100
      6 O6         -3.7211    5.4799   53.4323 O.2     1  ZINC000579444893   -0.5900
      7 N7         -3.2949    5.1822   51.2728 N.am    1  ZINC000579444893   -0.6300
      8 C8         -3.4929    6.6064   50.9927 C.3     1  ZINC000579444893    0.0800
      9 C9         -2.9482    4.2632   50.1858 C.3     1  ZINC000579444893    0.1100
     10 C10        -1.4730    3.8733   50.2987 C.3     1  ZINC000579444893    0.0600
     11 H11        -1.2783    3.4394   51.2794 H       1  ZINC000579444893    0.1000
     12 C12        -0.5837    5.1170   50.0890 C.3     1  ZINC000579444893   -0.1600
     13 C13         0.6113    4.5585   49.2723 C.3     1  ZINC000579444893    0.0800
     14 H14         1.3466    4.0903   49.9267 H       1  ZINC000579444893    0.1000
     15 F15         1.2014    5.5627   48.4973 F       1  ZINC000579444893   -0.2000
     16 C16        -0.0867    3.5039   48.3777 C.3     1  ZINC000579444893    0.0200
     17 N17        -1.1284    2.9029   49.2434 N.3     1  ZINC000579444893   -0.5000
     18 C18        -2.3151    2.5335   48.4603 C.3     1  ZINC000579444893    0.1000
     19 C19        -1.9267    1.5352   47.4004 C.2     1  ZINC000579444893    0.0800
     20 C20        -2.1119    1.6744   46.0672 C.2     1  ZINC000579444893   -0.2500
     21 C21        -1.6129    0.5273   45.4413 C.2     1  ZINC000579444893    0.0400
     22 N22        -1.1448   -0.2718   46.3656 N.2     1  ZINC000579444893   -0.2900
     23 N23        -1.3267    0.3448   47.6102 N.pl3   1  ZINC000579444893   -0.3700
     24 C24        -0.9420   -0.2090   48.9108 C.3     1  ZINC000579444893    0.0900
     25 C25        -2.4644    3.6792   55.0892 C.3     1  ZINC000579444893   -0.1000
     26 C26        -2.5189    3.0915   56.5212 C.3     1  ZINC000579444893   -0.1200
     27 C27        -1.1637    3.5363   57.1250 C.3     1  ZINC000579444893   -0.1300
     28 C28        -0.1669    3.4050   55.9550 C.3     1  ZINC000579444893   -0.1300
     29 C29        -0.9939    3.4958   54.6606 C.3     1  ZINC000579444893   -0.1200
     30 H30        -5.5134    2.6076   53.8972 H       1  ZINC000579444893    0.0600
     31 H31        -4.9752    2.6257   55.5937 H       1  ZINC000579444893    0.0700
     32 H32        -5.0749    4.1472   54.6753 H       1  ZINC000579444893    0.0500
     33 H33        -3.0185    2.7989   52.0688 H       1  ZINC000579444893    0.4000
     34 H34        -2.5665    7.1470   51.1862 H       1  ZINC000579444893    0.0600
     35 H35        -3.7775    6.7353   49.9483 H       1  ZINC000579444893    0.0800
     36 H36        -4.2823    6.9967   51.6351 H       1  ZINC000579444893    0.0700
     37 H37        -3.5668    3.3685   50.2552 H       1  ZINC000579444893    0.0900
     38 H38        -3.1224    4.7520   49.2273 H       1  ZINC000579444893    0.0900
     39 H39        -1.1158    5.8799   49.5209 H       1  ZINC000579444893    0.1100
     40 H40        -0.2446    5.5140   51.0458 H       1  ZINC000579444893    0.0800
     41 H41        -0.5419    3.9831   47.5110 H       1  ZINC000579444893    0.0600
     42 H42         0.6266    2.7432   48.0608 H       1  ZINC000579444893    0.0900
     43 H43        -3.0623    2.0916   49.1194 H       1  ZINC000579444893    0.1100
     44 H44        -2.7293    3.4237   47.9866 H       1  ZINC000579444893    0.0500
     45 H45        -2.5653    2.5212   45.5736 H       1  ZINC000579444893    0.1500
     46 H46        -1.6142    0.3344   44.3787 H       1  ZINC000579444893    0.1800
     47 H47         0.0558    0.1419   49.1743 H       1  ZINC000579444893    0.0800
     48 H48        -1.6537    0.1166   49.6693 H       1  ZINC000579444893    0.0800
     49 H49        -0.9416   -1.2977   48.8564 H       1  ZINC000579444893    0.0900
     50 H50        -2.7301    4.7364   55.0981 H       1  ZINC000579444893    0.0800
     51 H51        -3.3504    3.5178   57.0824 H       1  ZINC000579444893    0.0700
     52 H52        -2.5896    2.0043   56.4901 H       1  ZINC000579444893    0.0700
     53 H53        -1.2186    4.5705   57.4650 H       1  ZINC000579444893    0.0700
     54 H54        -0.8775    2.8787   57.9457 H       1  ZINC000579444893    0.0700
     55 H55         0.5604    4.2161   55.9912 H       1  ZINC000579444893    0.0600
     56 H56         0.3433    2.4430   56.0053 H       1  ZINC000579444893    0.0600
     57 H57        -0.8852    2.5780   54.0828 H       1  ZINC000579444893    0.0600
     58 H58        -0.6680    4.3510   54.0686 H       1  ZINC000579444893    0.0600
@<TRIPOS>BOND
     1     1     2    1
     2     1    30    1
     3     1    31    1
     4     1    32    1
     5     2     3    1
     6     2     4    1
     7     2    25    1
     8     4     5   am
     9     4    33    1
    10     5     6    2
    11     5     7   am
    12     7     8    1
    13     7     9    1
    14     8    34    1
    15     8    35    1
    16     8    36    1
    17     9    10    1
    18     9    37    1
    19     9    38    1
    20    10    11    1
    21    10    17    1
    22    10    12    1
    23    12    13    1
    24    12    39    1
    25    12    40    1
    26    13    14    1
    27    13    15    1
    28    13    16    1
    29    16    17    1
    30    16    41    1
    31    16    42    1
    32    17    18    1
    33    18    19    1
    34    18    43    1
    35    18    44    1
    36    19    23    1
    37    19    20    2
    38    20    21    1
    39    20    45    1
    40    21    22    2
    41    21    46    1
    42    22    23    1
    43    23    24    1
    44    24    47    1
    45    24    48    1
    46    24    49    1
    47    25    29    1
    48    25    26    1
    49    25    50    1
    50    26    27    1
    51    26    51    1
    52    26    52    1
    53    27    28    1
    54    27    53    1
    55    27    54    1
    56    28    29    1
    57    28    55    1
    58    28    56    1
    59    29    57    1
    60    29    58    1
@<TRIPOS>SUBSTRUCTURE
     1 ZINC000579444893        1 TEMP              0 ****  ****    0 ROOT


##########                                Name:    ZINC000770850676
##########                DOCK_Rotatable_Bonds:                  13
##########                         Heavy_Atoms:                  30
##########                    Molecular_Weight:             412.486
##########                DOCK_Rotatable_Bonds:                  13
##########                       Formal_Charge:          -0.0299994
##########                     HBond_Acceptors:                   7
##########                        HBond_Donors:                   3
##########                         Heavy_Atoms:                  30
##########                          Grid_Score:          -33.085251
##########                     Grid_vdw_energy:          -32.283211
##########                      Grid_es_energy:           -0.802040
##########           Internal_energy_repulsive:           17.010765

@<TRIPOS>MOLECULE
ZINC000770850676
 58 60 1 0 0
SMALL
USER_CHARGES


@<TRIPOS>ATOM
      1 O1         -1.0343    4.8503   52.9542 O.2     1  ZINC000770850676   -0.5300
      2 C2         -0.6391    3.7377   53.2313 C.2     1  ZINC000770850676    0.5100
      3 N3         -1.2697    3.0149   54.1781 N.am    1  ZINC000770850676   -0.7000
      4 C4         -2.4288    3.5757   54.8769 C.3     1  ZINC000770850676    0.1600
      5 H5         -2.3934    4.6638   54.8240 H       1  ZINC000770850676    0.1000
      6 C6         -2.4033    3.1353   56.3418 C.3     1  ZINC000770850676    0.0600
      7 O7         -2.5816    1.7194   56.4168 O.3     1  ZINC000770850676   -0.5700
      8 C8         -3.7144    3.0746   54.2159 C.3     1  ZINC000770850676   -0.1500
      9 C9         -4.8778    3.9889   54.6050 C.3     1  ZINC000770850676    0.1500
     10 H10        -4.8118    4.2293   55.6661 H       1  ZINC000770850676    0.1100
     11 O11        -4.8139    5.1934   53.8388 O.3     1  ZINC000770850676   -0.5400
     12 C12        -6.1824    3.2868   54.3292 C.ar    1  ZINC000770850676   -0.1200
     13 C13        -6.2616    2.3472   53.3183 C.ar    1  ZINC000770850676   -0.1100
     14 C14        -7.4582    1.7032   53.0654 C.ar    1  ZINC000770850676   -0.1200
     15 C15        -8.5757    1.9983   53.8235 C.ar    1  ZINC000770850676   -0.1200
     16 C16        -8.4965    2.9373   54.8350 C.ar    1  ZINC000770850676   -0.1200
     17 C17        -7.2987    3.5782   55.0908 C.ar    1  ZINC000770850676   -0.1100
     18 C18         0.5533    3.1608   52.5125 C.3     1  ZINC000770850676    0.1400
     19 H19         0.4481    2.0790   52.4294 H       1  ZINC000770850676    0.1000
     20 C20         1.8464    3.5048   53.2813 C.3     1  ZINC000770850676   -0.1200
     21 C21         2.8599    3.7969   52.1432 C.3     1  ZINC000770850676   -0.1300
     22 C22         1.9535    4.4763   51.0865 C.3     1  ZINC000770850676    0.1000
     23 N23         0.6661    3.7566   51.1732 N.am    1  ZINC000770850676   -0.5900
     24 C24        -0.2503    3.6647   50.1892 C.2     1  ZINC000770850676    0.6700
     25 O25        -0.0478    4.2017   49.1182 O.2     1  ZINC000770850676   -0.5600
     26 O26        -1.3902    2.9778   50.3930 O.3     1  ZINC000770850676   -0.3600
     27 C27        -2.3709    2.9956   49.3224 C.3     1  ZINC000770850676    0.1300
     28 C28        -2.0043    1.9626   48.2882 C.ar    1  ZINC000770850676   -0.1000
     29 C29        -1.8112    2.3400   46.9725 C.ar    1  ZINC000770850676   -0.0900
     30 C30        -1.4749    1.3923   46.0239 C.ar    1  ZINC000770850676   -0.1200
     31 C31        -1.3312    0.0674   46.3911 C.ar    1  ZINC000770850676   -0.1100
     32 C32        -1.5235   -0.3098   47.7070 C.ar    1  ZINC000770850676   -0.1200
     33 C33        -1.8555    0.6384   48.6564 C.ar    1  ZINC000770850676   -0.0900
     34 H34        -0.9561    2.1235   54.3970 H       1  ZINC000770850676    0.4000
     35 H35        -1.4449    3.4049   56.7857 H       1  ZINC000770850676    0.0500
     36 H36        -3.2076    3.6320   56.8847 H       1  ZINC000770850676    0.0500
     37 H37        -1.8741    1.2111   55.9971 H       1  ZINC000770850676    0.3800
     38 H38        -3.5929    3.0823   53.1327 H       1  ZINC000770850676    0.0800
     39 H39        -3.9230    2.0586   54.5508 H       1  ZINC000770850676    0.0900
     40 H40        -4.8700    5.0553   52.8834 H       1  ZINC000770850676    0.3700
     41 H41        -5.3884    2.1166   52.7260 H       1  ZINC000770850676    0.1200
     42 H42        -7.5201    0.9696   52.2751 H       1  ZINC000770850676    0.1200
     43 H43        -9.5109    1.4958   53.6255 H       1  ZINC000770850676    0.1200
     44 H44        -9.3696    3.1682   55.4271 H       1  ZINC000770850676    0.1200
     45 H45        -7.2368    4.3118   55.8810 H       1  ZINC000770850676    0.1200
     46 H46         1.7014    4.3873   53.9044 H       1  ZINC000770850676    0.0800
     47 H47         2.1752    2.6568   53.8821 H       1  ZINC000770850676    0.1000
     48 H48         3.6423    4.4763   52.4816 H       1  ZINC000770850676    0.0900
     49 H49         3.2880    2.8729   51.7547 H       1  ZINC000770850676    0.0800
     50 H50         1.8169    5.5309   51.3255 H       1  ZINC000770850676    0.0700
     51 H51         2.3826    4.3647   50.0907 H       1  ZINC000770850676    0.0900
     52 H52        -3.3566    2.7690   49.7288 H       1  ZINC000770850676    0.0800
     53 H53        -2.3865    3.9827   48.8603 H       1  ZINC000770850676    0.0800
     54 H54        -1.9233    3.3751   46.6856 H       1  ZINC000770850676    0.1200
     55 H55        -1.3246    1.6871   44.9958 H       1  ZINC000770850676    0.1300
     56 H56        -1.0692   -0.6731   45.6498 H       1  ZINC000770850676    0.1300
     57 H57        -1.4116   -1.3450   47.9938 H       1  ZINC000770850676    0.1300
     58 H58        -2.0057    0.3437   49.6845 H       1  ZINC000770850676    0.1200
@<TRIPOS>BOND
     1     1     2    2
     2     2     3   am
     3     2    18    1
     4     3     4    1
     5     3    34    1
     6     4     5    1
     7     4     6    1
     8     4     8    1
     9     6     7    1
    10     6    35    1
    11     6    36    1
    12     7    37    1
    13     8     9    1
    14     8    38    1
    15     8    39    1
    16     9    10    1
    17     9    11    1
    18     9    12    1
    19    11    40    1
    20    12    17   ar
    21    12    13   ar
    22    13    14   ar
    23    13    41    1
    24    14    15   ar
    25    14    42    1
    26    15    16   ar
    27    15    43    1
    28    16    17   ar
    29    16    44    1
    30    17    45    1
    31    18    19    1
    32    18    23    1
    33    18    20    1
    34    20    21    1
    35    20    46    1
    36    20    47    1
    37    21    22    1
    38    21    48    1
    39    21    49    1
    40    22    23    1
    41    22    50    1
    42    22    51    1
    43    23    24   am
    44    24    25    2
    45    24    26    1
    46    26    27    1
    47    27    28    1
    48    27    52    1
    49    27    53    1
    50    28    33   ar
    51    28    29   ar
    52    29    30   ar
    53    29    54    1
    54    30    31   ar
    55    30    55    1
    56    31    32   ar
    57    31    56    1
    58    32    33   ar
    59    32    57    1
    60    33    58    1
@<TRIPOS>SUBSTRUCTURE
     1 ZINC000770850676        1 TEMP              0 ****  ****    0 ROOT


##########                                Name:    ZINC001579482641
##########                DOCK_Rotatable_Bonds:                   5
##########                         Heavy_Atoms:                  26
##########                    Molecular_Weight:             355.359
##########                DOCK_Rotatable_Bonds:                   5
##########                       Formal_Charge:                0.05
##########                     HBond_Acceptors:                  11
##########                        HBond_Donors:                   1
##########                         Heavy_Atoms:                  26
##########                          Grid_Score:          -33.051105
##########                     Grid_vdw_energy:          -31.087288
##########                      Grid_es_energy:           -1.963818
##########           Internal_energy_repulsive:           16.571207

@<TRIPOS>MOLECULE
ZINC001579482641
 43 46 1 0 0
SMALL
USER_CHARGES


@<TRIPOS>ATOM
      1 C1         -8.3345   -0.1966   52.0031 C.3     1  ZINC001579482641    0.0300
      2 O2         -8.7727   -0.2641   53.3858 O.3     1  ZINC001579482641   -0.3300
      3 C3         -9.8736   -0.9968   53.6435 C.2     1  ZINC001579482641    0.5300
      4 O4        -10.5042   -1.4879   52.7286 O.2     1  ZINC001579482641   -0.4900
      5 C5        -10.3139   -1.2030   55.0385 C.ar    1  ZINC001579482641    0.0900
      6 C6         -9.6779   -0.5117   56.0711 C.ar    1  ZINC001579482641   -0.0800
      7 C7        -10.0938   -0.7082   57.3754 C.ar    1  ZINC001579482641   -0.1200
      8 C8        -11.1405   -1.5959   57.6130 C.ar    1  ZINC001579482641    0.1100
      9 N9        -11.5902   -1.8229   58.9066 N.3     1  ZINC001579482641   -0.4600
     10 C10       -10.5105   -2.3911   59.7536 C.3     1  ZINC001579482641    0.0400
     11 C11       -10.9912   -2.0841   61.1942 C.3     1  ZINC001579482641   -0.1100
     12 C12       -11.6387   -0.6875   61.0522 C.3     1  ZINC001579482641   -0.0100
     13 H13       -10.9313    0.0889   61.3436 H       1  ZINC001579482641    0.0900
     14 C14       -12.8853   -0.6009   61.8945 C.2     1  ZINC001579482641    0.1800
     15 N15       -14.0738   -1.0269   61.5633 N.2     1  ZINC001579482641   -0.2600
     16 N16       -14.9001   -0.7917   62.5201 N.2     1  ZINC001579482641   -0.2900
     17 C17       -14.2764   -0.2049   63.5052 C.2     1  ZINC001579482641    0.1500
     18 N18       -12.9790   -0.0716   63.1383 N.pl3   1  ZINC001579482641   -0.4800
     19 C19       -11.8984    0.5303   63.9235 C.3     1  ZINC001579482641    0.0700
     20 C20       -11.9901   -0.5570   59.5586 C.3     1  ZINC001579482641    0.0600
     21 C21       -11.7354   -2.2582   56.5257 C.ar    1  ZINC001579482641    0.2300
     22 C22       -12.8512   -3.2066   56.7633 C.2     1  ZINC001579482641    0.2100
     23 N23       -13.3330   -4.0861   55.9074 N.2     1  ZINC001579482641   -0.2600
     24 N24       -14.2934   -4.7178   56.4900 N.pl3   1  ZINC001579482641   -0.2300
     25 N25       -14.4357   -4.2667   57.6872 N.2     1  ZINC001579482641   -0.0500
     26 N26       -13.5622   -3.3400   57.8923 N.2     1  ZINC001579482641   -0.2000
     27 N27       -11.3132   -2.0396   55.2935 N.ar    1  ZINC001579482641   -0.4000
     28 H28        -9.1254    0.2384   51.3921 H       1  ZINC001579482641    0.0700
     29 H29        -7.4404    0.4232   51.9352 H       1  ZINC001579482641    0.1100
     30 H30        -8.1087   -1.2007   51.6442 H       1  ZINC001579482641    0.0700
     31 H31        -8.8686    0.1698   55.8536 H       1  ZINC001579482641    0.1600
     32 H32        -9.6174   -0.1853   58.1915 H       1  ZINC001579482641    0.1600
     33 H33       -10.4248   -3.4666   59.5976 H       1  ZINC001579482641    0.1000
     34 H34        -9.5613   -1.8952   59.5508 H       1  ZINC001579482641    0.0600
     35 H35       -11.7271   -2.8192   61.5201 H       1  ZINC001579482641    0.1000
     36 H36       -10.1474   -2.0498   61.8833 H       1  ZINC001579482641    0.0800
     37 H37       -14.7129    0.1120   64.4409 H       1  ZINC001579482641    0.2200
     38 H38       -11.4198   -0.2375   64.5313 H       1  ZINC001579482641    0.0800
     39 H39       -11.1631    0.9720   63.2509 H       1  ZINC001579482641    0.0900
     40 H40       -12.3084    1.3042   64.5723 H       1  ZINC001579482641    0.0900
     41 H41       -11.4416    0.2763   59.1195 H       1  ZINC001579482641    0.0600
     42 H42       -13.0626   -0.4018   59.4416 H       1  ZINC001579482641    0.1000
     43 H43       -14.8260   -5.4224   56.0889 H       1  ZINC001579482641    0.4800
@<TRIPOS>BOND
     1     1     2    1
     2     1    28    1
     3     1    29    1
     4     1    30    1
     5     2     3    1
     6     3     4    2
     7     3     5    1
     8     5    27   ar
     9     5     6   ar
    10     6     7   ar
    11     6    31    1
    12     7     8   ar
    13     7    32    1
    14     8     9    1
    15     8    21   ar
    16     9    20    1
    17     9    10    1
    18    10    11    1
    19    10    33    1
    20    10    34    1
    21    11    12    1
    22    11    35    1
    23    11    36    1
    24    12    13    1
    25    12    14    1
    26    12    20    1
    27    14    18    1
    28    14    15    2
    29    15    16    1
    30    16    17    2
    31    17    18    1
    32    17    37    1
    33    18    19    1
    34    19    38    1
    35    19    39    1
    36    19    40    1
    37    20    41    1
    38    20    42    1
    39    21    22    1
    40    21    27   ar
    41    22    26    1
    42    22    23    2
    43    23    24    1
    44    24    25    1
    45    24    43    1
    46    25    26    2
@<TRIPOS>SUBSTRUCTURE
     1 ZINC001579482641        1 TEMP              0 ****  ****    0 ROOT


##########                                Name:    ZINC000465392830
##########                DOCK_Rotatable_Bonds:                   8
##########                         Heavy_Atoms:                  29
##########                    Molecular_Weight:             419.588
##########                DOCK_Rotatable_Bonds:                   8
##########                       Formal_Charge:           0.0199996
##########                     HBond_Acceptors:                   7
##########                        HBond_Donors:                   0
##########                         Heavy_Atoms:                  29
##########                          Grid_Score:          -33.013966
##########                     Grid_vdw_energy:          -31.491377
##########                      Grid_es_energy:           -1.522587
##########           Internal_energy_repulsive:           84.051430

@<TRIPOS>MOLECULE
ZINC000465392830
 62 64 1 0 0
SMALL
USER_CHARGES


@<TRIPOS>ATOM
      1 C1         -6.7842    2.5300   58.7994 C.3     1  ZINC000465392830    0.0400
      2 O2         -6.7346    1.3530   59.6483 O.3     1  ZINC000465392830   -0.3600
      3 C3         -7.7227    1.2062   60.5449 C.2     1  ZINC000465392830    0.4600
      4 O4         -8.5994    2.0343   60.6188 O.2     1  ZINC000465392830   -0.4900
      5 C5         -7.7383    0.0085   61.4595 C.3     1  ZINC000465392830    0.1500
      6 H6         -7.2143   -0.8236   60.9894 H       1  ZINC000465392830    0.1100
      7 C7         -7.0630    0.3635   62.8009 C.3     1  ZINC000465392830   -0.1100
      8 C8         -7.9410   -0.3825   63.8401 C.3     1  ZINC000465392830   -0.0900
      9 H9         -7.6459   -1.4287   63.9217 H       1  ZINC000465392830    0.1000
     10 C10        -7.8830    0.3085   65.2040 C.3     1  ZINC000465392830   -0.0800
     11 C11        -8.4668    1.7178   65.0870 C.3     1  ZINC000465392830   -0.1200
     12 C12        -8.4087    2.4088   66.4508 C.3     1  ZINC000465392830   -0.1200
     13 C13        -9.2216    1.6027   67.4659 C.3     1  ZINC000465392830   -0.1200
     14 C14        -8.6378    0.1934   67.5830 C.3     1  ZINC000465392830   -0.1200
     15 C15        -8.6958   -0.4976   66.2191 C.3     1  ZINC000465392830   -0.1200
     16 C16        -9.3497   -0.2504   63.2093 C.3     1  ZINC000465392830    0.1000
     17 N17        -9.1262   -0.3772   61.7544 N.am    1  ZINC000465392830   -0.6100
     18 C18       -10.0429   -0.7762   60.8506 C.2     1  ZINC000465392830    0.5400
     19 O19       -11.1624   -1.0710   61.2120 O.2     1  ZINC000465392830   -0.5300
     20 C20        -9.6768   -0.8559   59.3909 C.3     1  ZINC000465392830   -0.1300
     21 C21       -10.7029   -0.0779   58.5645 C.3     1  ZINC000465392830   -0.0600
     22 C22       -10.5338   -0.4165   57.1058 C.ar    1  ZINC000465392830   -0.2000
     23 C23       -11.1869   -1.5065   56.5517 C.ar    1  ZINC000465392830    0.2000
     24 C24       -12.0800   -2.3732   57.4015 C.3     1  ZINC000465392830   -0.1100
     25 N25       -11.0171   -1.7763   55.2681 N.ar    1  ZINC000465392830   -0.5000
     26 C26       -10.2334   -1.0182   54.5144 C.ar    1  ZINC000465392830    0.3000
     27 S27       -10.0357   -1.4141   52.8088 S.3     1  ZINC000465392830    0.0000
     28 C28        -9.1416    0.0558   52.2465 C.3     1  ZINC000465392830   -0.1400
     29 N29        -9.5953    0.0311   55.0133 N.ar    1  ZINC000465392830   -0.5300
     30 C30        -9.7264    0.3586   56.2880 C.ar    1  ZINC000465392830    0.2000
     31 C31        -8.9974    1.5531   56.8473 C.3     1  ZINC000465392830   -0.1100
     32 H32        -7.7071    2.5211   58.2195 H       1  ZINC000465392830    0.0600
     33 H33        -6.7531    3.4264   59.4190 H       1  ZINC000465392830    0.0600
     34 H34        -5.9298    2.5262   58.1227 H       1  ZINC000465392830    0.1000
     35 H35        -6.0378   -0.0058   62.8261 H       1  ZINC000465392830    0.1000
     36 H36        -7.0909    1.4393   62.9739 H       1  ZINC000465392830    0.0800
     37 H37        -6.8466    0.3709   65.5359 H       1  ZINC000465392830    0.0800
     38 H38        -7.8877    2.2920   64.3638 H       1  ZINC000465392830    0.0600
     39 H39        -9.5032    1.6554   64.7551 H       1  ZINC000465392830    0.0700
     40 H40        -7.3723    2.4712   66.7826 H       1  ZINC000465392830    0.0600
     41 H41        -8.8246    3.4129   66.3674 H       1  ZINC000465392830    0.0600
     42 H42        -9.1802    2.0950   68.4376 H       1  ZINC000465392830    0.0600
     43 H43       -10.2580    1.5404   67.1341 H       1  ZINC000465392830    0.0600
     44 H44        -7.6013    0.2558   67.9148 H       1  ZINC000465392830    0.0600
     45 H45        -9.2169   -0.3809   68.3061 H       1  ZINC000465392830    0.0600
     46 H46        -9.7323   -0.5600   65.8873 H       1  ZINC000465392830    0.0700
     47 H47        -8.2799   -1.5017   66.3025 H       1  ZINC000465392830    0.0600
     48 H48       -10.0002   -1.0502   63.5629 H       1  ZINC000465392830    0.0900
     49 H49        -9.7809    0.7226   63.4447 H       1  ZINC000465392830    0.0800
     50 H50        -8.6869   -0.4248   59.2405 H       1  ZINC000465392830    0.1000
     51 H51        -9.6707   -1.8989   59.0742 H       1  ZINC000465392830    0.1000
     52 H52       -11.7086   -0.3483   58.8861 H       1  ZINC000465392830    0.0900
     53 H53       -10.5503    0.9916   58.7094 H       1  ZINC000465392830    0.0900
     54 H54       -13.0975   -1.9834   57.3739 H       1  ZINC000465392830    0.0900
     55 H55       -12.0709   -3.3926   57.0156 H       1  ZINC000465392830    0.0900
     56 H56       -11.7176   -2.3706   58.4294 H       1  ZINC000465392830    0.0900
     57 H57        -9.7494    0.9423   52.4279 H       1  ZINC000465392830    0.0900
     58 H58        -8.2025    0.1411   52.7932 H       1  ZINC000465392830    0.0900
     59 H59        -8.9346   -0.0308   51.1799 H       1  ZINC000465392830    0.1100
     60 H60        -9.6224    2.4403   56.7459 H       1  ZINC000465392830    0.0900
     61 H61        -8.7762    1.3831   57.9010 H       1  ZINC000465392830    0.0900
     62 H62        -8.0665    1.6998   56.2997 H       1  ZINC000465392830    0.0800
@<TRIPOS>BOND
     1     1     2    1
     2     1    32    1
     3     1    33    1
     4     1    34    1
     5     2     3    1
     6     3     4    2
     7     3     5    1
     8     5     6    1
     9     5    17    1
    10     5     7    1
    11     7     8    1
    12     7    35    1
    13     7    36    1
    14     8     9    1
    15     8    10    1
    16     8    16    1
    17    10    15    1
    18    10    11    1
    19    10    37    1
    20    11    12    1
    21    11    38    1
    22    11    39    1
    23    12    13    1
    24    12    40    1
    25    12    41    1
    26    13    14    1
    27    13    42    1
    28    13    43    1
    29    14    15    1
    30    14    44    1
    31    14    45    1
    32    15    46    1
    33    15    47    1
    34    16    17    1
    35    16    48    1
    36    16    49    1
    37    17    18   am
    38    18    19    2
    39    18    20    1
    40    20    21    1
    41    20    50    1
    42    20    51    1
    43    21    22    1
    44    21    52    1
    45    21    53    1
    46    22    30   ar
    47    22    23   ar
    48    23    24    1
    49    23    25   ar
    50    24    54    1
    51    24    55    1
    52    24    56    1
    53    25    26   ar
    54    26    27    1
    55    26    29   ar
    56    27    28    1
    57    28    57    1
    58    28    58    1
    59    28    59    1
    60    29    30   ar
    61    30    31    1
    62    31    60    1
    63    31    61    1
    64    31    62    1
@<TRIPOS>SUBSTRUCTURE
     1 ZINC000465392830        1 TEMP              0 ****  ****    0 ROOT


##########                                Name:    ZINC000509132103
##########                DOCK_Rotatable_Bonds:                   7
##########                         Heavy_Atoms:                  29
##########                    Molecular_Weight:              405.52
##########                DOCK_Rotatable_Bonds:                   7
##########                       Formal_Charge:          -0.0499998
##########                     HBond_Acceptors:                   6
##########                        HBond_Donors:                   0
##########                         Heavy_Atoms:                  29
##########                          Grid_Score:          -32.961319
##########                     Grid_vdw_energy:          -28.618681
##########                      Grid_es_energy:           -4.342637
##########           Internal_energy_repulsive:           15.703271

@<TRIPOS>MOLECULE
ZINC000509132103
 52 55 1 0 0
SMALL
USER_CHARGES


@<TRIPOS>ATOM
      1 C1         -0.2768    0.3393   64.5536 C.3     1  ZINC000509132103    0.0300
      2 O2         -1.0191   -0.0365   65.7155 O.3     1  ZINC000509132103   -0.3000
      3 C3         -2.2895    0.4304   65.8124 C.ar    1  ZINC000509132103    0.2700
      4 C4         -2.8156    1.2388   64.8083 C.ar    1  ZINC000509132103   -0.1300
      5 C5         -4.1187    1.6904   64.9543 C.ar    1  ZINC000509132103   -0.0700
      6 C6         -4.8172    1.3095   66.0906 C.ar    1  ZINC000509132103    0.0500
      7 C7         -6.2361    1.7742   66.2944 C.3     1  ZINC000509132103   -0.0500
      8 S8         -7.3786    0.4253   65.8874 S.3     1  ZINC000509132103   -0.1500
      9 C9         -7.2635    0.3244   64.0799 C.3     1  ZINC000509132103   -0.1300
     10 C10        -8.3969   -0.5159   63.5505 C.2     1  ZINC000509132103    0.5400
     11 O11        -9.1990   -1.0049   64.3175 O.2     1  ZINC000509132103   -0.5100
     12 N12        -8.5192   -0.7240   62.2245 N.am    1  ZINC000509132103   -0.6100
     13 C13        -7.5659   -0.1468   61.2706 C.3     1  ZINC000509132103    0.1500
     14 C14        -8.3122    0.4387   60.0982 C.ar    1  ZINC000509132103   -0.1000
     15 C15        -7.6034    1.2403   59.2144 C.ar    1  ZINC000509132103   -0.1100
     16 C16        -8.2288    1.7962   58.1170 C.ar    1  ZINC000509132103   -0.1200
     17 C17        -9.5711    1.5513   57.8962 C.ar    1  ZINC000509132103   -0.1200
     18 C18       -10.2776    0.7579   58.7762 C.ar    1  ZINC000509132103   -0.1100
     19 C19        -9.6521    0.2019   59.8851 C.ar    1  ZINC000509132103   -0.0600
     20 C20       -10.4927   -0.6311   60.8165 C.3     1  ZINC000509132103   -0.0200
     21 H21       -11.0691    0.0282   61.4655 H       1  ZINC000509132103    0.1000
     22 C22       -11.4385   -1.4793   60.0058 C.ar    1  ZINC000509132103   -0.0800
     23 C23       -12.7833   -1.5116   60.3238 C.ar    1  ZINC000509132103   -0.1100
     24 C24       -13.6508   -2.2896   59.5800 C.ar    1  ZINC000509132103   -0.1200
     25 C25       -13.1735   -3.0349   58.5182 C.ar    1  ZINC000509132103   -0.1200
     26 C26       -11.8288   -3.0019   58.1998 C.ar    1  ZINC000509132103   -0.1200
     27 C27       -10.9619   -2.2205   58.9407 C.ar    1  ZINC000509132103   -0.1100
     28 C28        -9.6113   -1.5450   61.6759 C.3     1  ZINC000509132103    0.1200
     29 N29        -4.2392    0.5403   66.9921 N.ar    1  ZINC000509132103   -0.1900
     30 N30        -3.0355    0.1149   66.8593 N.ar    1  ZINC000509132103   -0.3000
     31 H31        -0.1936    1.4253   64.5111 H       1  ZINC000509132103    0.0600
     32 H32         0.7198   -0.0998   64.6015 H       1  ZINC000509132103    0.1000
     33 H33        -0.7901   -0.0211   63.6622 H       1  ZINC000509132103    0.0600
     34 H34        -2.2272    1.5060   63.9430 H       1  ZINC000509132103    0.1600
     35 H35        -4.5760    2.3204   64.2057 H       1  ZINC000509132103    0.1600
     36 H36        -6.3765    2.0677   67.3348 H       1  ZINC000509132103    0.1100
     37 H37        -6.4357    2.6274   65.6461 H       1  ZINC000509132103    0.1000
     38 H38        -7.3250    1.3265   63.6555 H       1  ZINC000509132103    0.1100
     39 H39        -6.3129   -0.1305   63.8012 H       1  ZINC000509132103    0.1100
     40 H40        -6.9905    0.6375   61.7626 H       1  ZINC000509132103    0.1000
     41 H41        -6.8893   -0.9251   60.9179 H       1  ZINC000509132103    0.0900
     42 H42        -6.5544    1.4308   59.3870 H       1  ZINC000509132103    0.1200
     43 H43        -7.6717    2.4198   57.4335 H       1  ZINC000509132103    0.1300
     44 H44       -10.0656    1.9803   57.0373 H       1  ZINC000509132103    0.1200
     45 H45       -11.3263    0.5677   58.6019 H       1  ZINC000509132103    0.1200
     46 H46       -13.1563   -0.9293   61.1534 H       1  ZINC000509132103    0.1200
     47 H47       -14.7015   -2.3154   59.8289 H       1  ZINC000509132103    0.1200
     48 H48       -13.8511   -3.6433   57.9376 H       1  ZINC000509132103    0.1200
     49 H49       -11.4558   -3.5845   57.3703 H       1  ZINC000509132103    0.1200
     50 H50        -9.9113   -2.1947   58.6920 H       1  ZINC000509132103    0.1200
     51 H51        -9.2034   -2.3478   61.0617 H       1  ZINC000509132103    0.0800
     52 H52       -10.2006   -1.9661   62.4905 H       1  ZINC000509132103    0.1000
@<TRIPOS>BOND
     1     1     2    1
     2     1    31    1
     3     1    32    1
     4     1    33    1
     5     2     3    1
     6     3    30   ar
     7     3     4   ar
     8     4     5   ar
     9     4    34    1
    10     5     6   ar
    11     5    35    1
    12     6     7    1
    13     6    29   ar
    14     7     8    1
    15     7    36    1
    16     7    37    1
    17     8     9    1
    18     9    10    1
    19     9    38    1
    20     9    39    1
    21    10    11    2
    22    10    12   am
    23    12    28    1
    24    12    13    1
    25    13    14    1
    26    13    40    1
    27    13    41    1
    28    14    19   ar
    29    14    15   ar
    30    15    16   ar
    31    15    42    1
    32    16    17   ar
    33    16    43    1
    34    17    18   ar
    35    17    44    1
    36    18    19   ar
    37    18    45    1
    38    19    20    1
    39    20    21    1
    40    20    22    1
    41    20    28    1
    42    22    27   ar
    43    22    23   ar
    44    23    24   ar
    45    23    46    1
    46    24    25   ar
    47    24    47    1
    48    25    26   ar
    49    25    48    1
    50    26    27   ar
    51    26    49    1
    52    27    50    1
    53    28    51    1
    54    28    52    1
    55    29    30   ar
@<TRIPOS>SUBSTRUCTURE
     1 ZINC000509132103        1 TEMP              0 ****  ****    0 ROOT


##########                                Name:    ZINC000637608314
##########                DOCK_Rotatable_Bonds:                   9
##########                         Heavy_Atoms:                  28
##########                    Molecular_Weight:             387.479
##########                DOCK_Rotatable_Bonds:                   9
##########                       Formal_Charge:           0.0499991
##########                     HBond_Acceptors:                   7
##########                        HBond_Donors:                   2
##########                         Heavy_Atoms:                  28
##########                          Grid_Score:          -32.949657
##########                     Grid_vdw_energy:          -31.245876
##########                      Grid_es_energy:           -1.703782
##########           Internal_energy_repulsive:           13.358847

@<TRIPOS>MOLECULE
ZINC000637608314
 57 59 1 0 0
SMALL
USER_CHARGES


@<TRIPOS>ATOM
      1 C1         -0.7957    0.9173   46.4635 C.3     1  ZINC000637608314   -0.1400
      2 C2         -0.3173    0.6001   47.8818 C.3     1  ZINC000637608314   -0.0400
      3 C3         -0.5933   -0.8717   48.1959 C.3     1  ZINC000637608314   -0.1500
      4 C4          1.1850    0.8708   47.9857 C.3     1  ZINC000637608314   -0.1500
      5 C5         -1.0539    1.4707   48.8669 C.2     1  ZINC000637608314    0.1900
      6 C6         -2.3828    1.2943   49.0533 C.2     1  ZINC000637608314   -0.2400
      7 C7         -3.0743    2.1006   49.9684 C.2     1  ZINC000637608314    0.0200
      8 C8         -2.3930    3.0574   50.6617 C.2     1  ZINC000637608314   -0.2400
      9 C9         -3.1119    3.9373   51.6516 C.3     1  ZINC000637608314    0.2100
     10 N10        -2.9918    3.3622   52.9936 N.am    1  ZINC000637608314   -0.7300
     11 C11        -3.4397    4.0487   54.0635 C.2     1  ZINC000637608314    0.7100
     12 O12        -3.9420    5.1458   53.9151 O.2     1  ZINC000637608314   -0.5900
     13 N13        -3.3305    3.5189   55.2980 N.am    1  ZINC000637608314   -0.6200
     14 C14        -2.7236    2.1976   55.4771 C.3     1  ZINC000637608314    0.2000
     15 C15        -1.2511    2.3549   55.7567 C.2     1  ZINC000637608314   -0.0400
     16 C16        -0.6904    2.4802   56.9729 C.2     1  ZINC000637608314   -0.1900
     17 C17         0.7036    2.6017   56.7707 C.2     1  ZINC000637608314   -0.2200
     18 C18         0.9114    2.5433   55.4430 C.2     1  ZINC000637608314   -0.0300
     19 O19        -0.2756    2.3880   54.8342 O.3     1  ZINC000637608314   -0.1700
     20 C20        -3.8190    4.2643   56.4608 C.3     1  ZINC000637608314    0.1300
     21 C21        -5.3402    4.1280   56.5518 C.3     1  ZINC000637608314    0.0700
     22 H22        -5.8010    4.5162   55.6435 H       1  ZINC000637608314    0.0900
     23 C23        -5.8633    4.9059   57.7783 C.3     1  ZINC000637608314   -0.1500
     24 C24        -6.9728    3.9628   58.3181 C.3     1  ZINC000637608314   -0.1600
     25 C25        -6.3672    2.5759   57.9859 C.3     1  ZINC000637608314    0.0500
     26 O26        -5.6951    2.7512   56.7265 O.3     1  ZINC000637608314   -0.3800
     27 C27        -1.0134    3.2136   50.4438 C.2     1  ZINC000637608314    0.5300
     28 O28        -0.3915    4.0656   51.0579 O.2     1  ZINC000637608314   -0.5400
     29 N29        -0.3764    2.4198   49.5621 N.am    1  ZINC000637608314   -0.6000
     30 H30        -1.8659    0.7245   46.3894 H       1  ZINC000637608314    0.0700
     31 H31        -0.5991    1.9658   46.2398 H       1  ZINC000637608314    0.0700
     32 H32        -0.2628    0.2877   45.7510 H       1  ZINC000637608314    0.0700
     33 H33        -0.0604   -1.5013   47.4833 H       1  ZINC000637608314    0.0700
     34 H34        -0.2523   -1.0977   49.2062 H       1  ZINC000637608314    0.0600
     35 H35        -1.6635   -1.0646   48.1217 H       1  ZINC000637608314    0.0700
     36 H36         1.3816    1.9193   47.7620 H       1  ZINC000637608314    0.0700
     37 H37         1.5258    0.6448   48.9961 H       1  ZINC000637608314    0.0600
     38 H38         1.7178    0.2411   47.2732 H       1  ZINC000637608314    0.0700
     39 H39        -2.9103    0.5332   48.4975 H       1  ZINC000637608314    0.1500
     40 H40        -4.1348    1.9659   50.1221 H       1  ZINC000637608314    0.1400
     41 H41        -2.6682    4.9329   51.6419 H       1  ZINC000637608314    0.0800
     42 H42        -4.1650    4.0061   51.3788 H       1  ZINC000637608314    0.0800
     43 H43        -2.5899    2.4873   53.1122 H       1  ZINC000637608314    0.4000
     44 H44        -3.2003    1.6893   56.3152 H       1  ZINC000637608314    0.1200
     45 H45        -2.8603    1.6090   54.5699 H       1  ZINC000637608314    0.0900
     46 H46        -1.2061    2.4873   57.9218 H       1  ZINC000637608314    0.1500
     47 H47         1.4571    2.7191   57.5355 H       1  ZINC000637608314    0.1500
     48 H48         1.8704    2.6065   54.9504 H       1  ZINC000637608314    0.2000
     49 H49        -3.3635    3.8638   57.3665 H       1  ZINC000637608314    0.0800
     50 H50        -3.5541    5.3163   56.3554 H       1  ZINC000637608314    0.1000
     51 H51        -5.0741    5.0399   58.5182 H       1  ZINC000637608314    0.0800
     52 H52        -6.2825    5.8664   57.4785 H       1  ZINC000637608314    0.0900
     53 H53        -7.1049    4.0866   59.3931 H       1  ZINC000637608314    0.0800
     54 H54        -7.9126    4.1183   57.7883 H       1  ZINC000637608314    0.0800
     55 H55        -5.6562    2.2790   58.7569 H       1  ZINC000637608314    0.0600
     56 H56        -7.1572    1.8308   57.8916 H       1  ZINC000637608314    0.0800
     57 H57         0.5760    2.5324   49.4165 H       1  ZINC000637608314    0.4100
@<TRIPOS>BOND
     1     1     2    1
     2     1    30    1
     3     1    31    1
     4     1    32    1
     5     2     3    1
     6     2     4    1
     7     2     5    1
     8     3    33    1
     9     3    34    1
    10     3    35    1
    11     4    36    1
    12     4    37    1
    13     4    38    1
    14     5    29    1
    15     5     6    2
    16     6     7    1
    17     6    39    1
    18     7     8    2
    19     7    40    1
    20     8     9    1
    21     8    27    1
    22     9    10    1
    23     9    41    1
    24     9    42    1
    25    10    11   am
    26    10    43    1
    27    11    12    2
    28    11    13   am
    29    13    14    1
    30    13    20    1
    31    14    15    1
    32    14    44    1
    33    14    45    1
    34    15    19    1
    35    15    16    2
    36    16    17    1
    37    16    46    1
    38    17    18    2
    39    17    47    1
    40    18    19    1
    41    18    48    1
    42    20    21    1
    43    20    49    1
    44    20    50    1
    45    21    22    1
    46    21    26    1
    47    21    23    1
    48    23    24    1
    49    23    51    1
    50    23    52    1
    51    24    25    1
    52    24    53    1
    53    24    54    1
    54    25    26    1
    55    25    55    1
    56    25    56    1
    57    27    28    2
    58    27    29   am
    59    29    57    1
@<TRIPOS>SUBSTRUCTURE
     1 ZINC000637608314        1 TEMP              0 ****  ****    0 ROOT


##########                                Name:    ZINC000821177065
##########                DOCK_Rotatable_Bonds:                  10
##########                         Heavy_Atoms:                  25
##########                    Molecular_Weight:             341.413
##########                DOCK_Rotatable_Bonds:                  10
##########                       Formal_Charge:          0.00999917
##########                     HBond_Acceptors:                   7
##########                        HBond_Donors:                   3
##########                         Heavy_Atoms:                  25
##########                          Grid_Score:          -32.937500
##########                     Grid_vdw_energy:          -33.123295
##########                      Grid_es_energy:            0.185796
##########           Internal_energy_repulsive:           17.290230

@<TRIPOS>MOLECULE
ZINC000821177065
 48 51 1 0 0
SMALL
USER_CHARGES


@<TRIPOS>ATOM
      1 O1         -3.6749    2.7645   50.8211 O.2     1  ZINC000821177065   -0.5600
      2 C2         -2.9112    3.5384   51.3654 C.2     1  ZINC000821177065    0.7100
      3 N3         -3.1500    3.9447   52.6281 N.am    1  ZINC000821177065   -0.7300
      4 C4         -4.3329    3.4584   53.3427 C.3     1  ZINC000821177065    0.1200
      5 C5         -4.1226    3.6241   54.8491 C.3     1  ZINC000821177065    0.1900
      6 O6         -3.6083    4.9300   55.1176 O.3     1  ZINC000821177065   -0.5400
      7 C7         -5.4580    3.4430   55.5734 C.3     1  ZINC000821177065   -0.1500
      8 C8         -5.4416    2.6980   56.9098 C.3     1  ZINC000821177065   -0.1600
      9 C9         -5.6627    4.2117   56.8805 C.3     1  ZINC000821177065   -0.1700
     10 C10        -3.1275    2.5723   55.3438 C.3     1  ZINC000821177065   -0.1800
     11 C11        -1.6414    2.8299   55.0872 C.3     1  ZINC000821177065   -0.1900
     12 C12        -2.2071    2.9605   56.5028 C.3     1  ZINC000821177065   -0.1700
     13 N13        -1.8230    3.9858   50.7081 N.am    1  ZINC000821177065   -0.6500
     14 C14        -1.5746    3.5632   49.3946 C.2     1  ZINC000821177065    0.3200
     15 N15        -1.5183    2.3186   48.9830 N.2     1  ZINC000821177065   -0.3200
     16 N16        -1.2495    2.3248   47.6084 N.pl3   1  ZINC000821177065   -0.3600
     17 C17        -1.1060    1.1433   46.7542 C.3     1  ZINC000821177065    0.1900
     18 C18        -0.2012    0.1437   47.4274 C.ar    1  ZINC000821177065    0.1100
     19 C19         1.1105    0.4836   47.6980 C.ar    1  ZINC000821177065   -0.1500
     20 C20         1.9346   -0.4433   48.3181 C.ar    1  ZINC000821177065   -0.0700
     21 C21         1.4059   -1.6826   48.6439 C.ar    1  ZINC000821177065   -0.1700
     22 C22         0.0840   -1.9513   48.3420 C.ar    1  ZINC000821177065    0.1000
     23 N23        -0.6720   -1.0436   47.7562 N.ar    1  ZINC000821177065   -0.4700
     24 C24        -1.1466    3.6097   47.2082 C.2     1  ZINC000821177065    0.0700
     25 C25        -1.3485    4.3979   48.2885 C.2     1  ZINC000821177065   -0.2600
     26 H26        -2.5386    4.5589   53.0638 H       1  ZINC000821177065    0.4000
     27 H27        -5.2062    4.0323   53.0325 H       1  ZINC000821177065    0.0700
     28 H28        -4.4895    2.4049   53.1114 H       1  ZINC000821177065    0.0800
     29 H29        -3.0793    4.9861   55.9251 H       1  ZINC000821177065    0.3800
     30 H30        -6.3269    3.3040   54.9300 H       1  ZINC000821177065    0.1100
     31 H31        -6.2996    2.0686   57.1456 H       1  ZINC000821177065    0.0900
     32 H32        -4.4794    2.3369   57.2728 H       1  ZINC000821177065    0.1100
     33 H33        -4.8459    4.8464   57.2242 H       1  ZINC000821177065    0.1000
     34 H34        -6.6662    4.5780   57.0971 H       1  ZINC000821177065    0.0900
     35 H35        -3.4745    1.5399   55.3007 H       1  ZINC000821177065    0.1100
     36 H36        -1.0103    1.9670   54.8751 H       1  ZINC000821177065    0.1000
     37 H37        -1.3725    3.7487   54.5660 H       1  ZINC000821177065    0.1100
     38 H38        -2.3105    3.9651   56.9128 H       1  ZINC000821177065    0.0900
     39 H39        -1.9483    2.1834   57.2219 H       1  ZINC000821177065    0.1000
     40 H40        -1.2117    4.6001   51.1438 H       1  ZINC000821177065    0.4100
     41 H41        -2.0849    0.6934   46.5887 H       1  ZINC000821177065    0.1000
     42 H42        -0.6747    1.4370   45.7972 H       1  ZINC000821177065    0.1200
     43 H43         1.4892    1.4589   47.4297 H       1  ZINC000821177065    0.1400
     44 H44         2.9642   -0.2054   48.5417 H       1  ZINC000821177065    0.1400
     45 H45         2.0189   -2.4289   49.1273 H       1  ZINC000821177065    0.1400
     46 H46        -0.3355   -2.9146   48.5922 H       1  ZINC000821177065    0.1600
     47 H47        -0.9436    3.9483   46.2031 H       1  ZINC000821177065    0.1800
     48 H48        -1.3315    5.4777   48.2998 H       1  ZINC000821177065    0.1700
@<TRIPOS>BOND
     1     1     2    2
     2     2     3   am
     3     2    13   am
     4     3     4    1
     5     3    26    1
     6     4     5    1
     7     4    27    1
     8     4    28    1
     9     5     6    1
    10     5     7    1
    11     5    10    1
    12     6    29    1
    13     7     9    1
    14     7     8    1
    15     7    30    1
    16     8     9    1
    17     8    31    1
    18     8    32    1
    19     9    33    1
    20     9    34    1
    21    10    12    1
    22    10    11    1
    23    10    35    1
    24    11    12    1
    25    11    36    1
    26    11    37    1
    27    12    38    1
    28    12    39    1
    29    13    14    1
    30    13    40    1
    31    14    25    1
    32    14    15    2
    33    15    16    1
    34    16    17    1
    35    16    24    1
    36    17    18    1
    37    17    41    1
    38    17    42    1
    39    18    23   ar
    40    18    19   ar
    41    19    20   ar
    42    19    43    1
    43    20    21   ar
    44    20    44    1
    45    21    22   ar
    46    21    45    1
    47    22    23   ar
    48    22    46    1
    49    24    25    2
    50    24    47    1
    51    25    48    1
@<TRIPOS>SUBSTRUCTURE
     1 ZINC000821177065        1 TEMP              0 ****  ****    0 ROOT


##########                                Name:    ZINC000821442454
##########                DOCK_Rotatable_Bonds:                   6
##########                         Heavy_Atoms:                  26
##########                    Molecular_Weight:             398.873
##########                DOCK_Rotatable_Bonds:                   6
##########                       Formal_Charge:          -0.0399996
##########                     HBond_Acceptors:                  11
##########                        HBond_Donors:                   2
##########                         Heavy_Atoms:                  26
##########                          Grid_Score:          -32.928703
##########                     Grid_vdw_energy:          -30.012444
##########                      Grid_es_energy:           -2.916260
##########           Internal_energy_repulsive:            9.528578

@<TRIPOS>MOLECULE
ZINC000821442454
 45 47 1 0 0
SMALL
USER_CHARGES


@<TRIPOS>ATOM
      1 C1         -0.6499    2.9824   55.5675 C.3     1  ZINC000821442454   -0.1500
      2 C2         -1.0732    3.3282   54.1385 C.3     1  ZINC000821442454   -0.6300
      3 S3          0.4026    3.6128   53.1228 S.o2    1  ZINC000821442454    2.6000
      4 O4          1.1066    4.7606   53.5768 O.2     1  ZINC000821442454   -0.9500
      5 O5          1.0801    2.3888   52.8736 O.2     1  ZINC000821442454   -0.9500
      6 N6         -0.1935    4.0581   51.6434 N.am    1  ZINC000821442454   -1.0000
      7 C7         -1.0410    5.2504   51.5058 C.3     1  ZINC000821442454    0.1100
      8 C8         -2.3408    4.8526   50.7993 C.3     1  ZINC000821442454   -0.1300
      9 C9         -2.0064    4.1631   49.4748 C.3     1  ZINC000821442454   -0.1100
     10 C10        -1.1974    2.8932   49.7488 C.3     1  ZINC000821442454   -0.1200
     11 H11        -1.7722    2.2275   50.3928 H       1  ZINC000821442454    0.1100
     12 C12        -0.8969    2.1973   48.4463 C.2     1  ZINC000821442454    0.5300
     13 O13        -0.9511    0.9875   48.3785 O.2     1  ZINC000821442454   -0.5100
     14 N14        -0.5679    2.9192   47.3568 N.am    1  ZINC000821442454   -0.6700
     15 C15        -0.2890    2.2734   46.1479 C.ar    1  ZINC000821442454    0.1800
     16 C16        -1.2828    1.5473   45.5039 C.ar    1  ZINC000821442454   -0.1200
     17 C17        -1.0103    0.9101   44.3114 C.ar    1  ZINC000821442454   -0.0500
     18 C18         0.2630    0.9946   43.7521 C.ar    1  ZINC000821442454   -0.0300
     19 C19         0.5579    0.3099   42.4688 C.2     1  ZINC000821442454    0.2200
     20 N20        -0.2833   -0.4012   41.7443 N.2     1  ZINC000821442454   -0.2900
     21 N21         0.3520   -0.8266   40.7068 N.pl3   1  ZINC000821442454   -0.2200
     22 N22         1.5684   -0.4076   40.7509 N.2     1  ZINC000821442454   -0.0400
     23 N23         1.7298    0.2988   41.8178 N.2     1  ZINC000821442454   -0.2700
     24 C24         1.2595    1.7235   44.3991 C.ar    1  ZINC000821442454   -0.0500
     25 C25         0.9815    2.3639   45.5890 C.ar    1  ZINC000821442454   -0.0800
     26 Cl26        2.2217    3.2720   46.3959 Cl      1  ZINC000821442454   -0.0500
     27 C27         0.1200    3.2719   50.4424 C.3     1  ZINC000821442454    0.1400
     28 H28        -0.0368    2.0812   55.5568 H       1  ZINC000821442454    0.0700
     29 H29        -0.0745    3.8083   55.9859 H       1  ZINC000821442454    0.0700
     30 H30        -1.5367    2.8114   56.1778 H       1  ZINC000821442454    0.0800
     31 H31        -1.6485    2.5023   53.7201 H       1  ZINC000821442454    0.1300
     32 H32        -1.6862    4.2295   54.1492 H       1  ZINC000821442454    0.1300
     33 H33        -1.2698    5.6520   52.4930 H       1  ZINC000821442454    0.1000
     34 H34        -0.5195    6.0033   50.9148 H       1  ZINC000821442454    0.0700
     35 H35        -2.9048    4.1685   51.4334 H       1  ZINC000821442454    0.0700
     36 H36        -2.9368    5.7444   50.6050 H       1  ZINC000821442454    0.0800
     37 H37        -2.9298    3.9009   48.9584 H       1  ZINC000821442454    0.0700
     38 H38        -1.4212    4.8388   48.8511 H       1  ZINC000821442454    0.0800
     39 H39        -0.5246    3.8867   47.4110 H       1  ZINC000821442454    0.4200
     40 H40        -2.2698    1.4814   45.9376 H       1  ZINC000821442454    0.1600
     41 H41        -1.7834    0.3454   43.8117 H       1  ZINC000821442454    0.1500
     42 H42        -0.0270   -1.3763   40.0032 H       1  ZINC000821442454    0.4800
     43 H43         2.2471    1.7903   43.9673 H       1  ZINC000821442454    0.1500
     44 H44         0.7343    3.8624   49.7627 H       1  ZINC000821442454    0.0800
     45 H45         0.6553    2.3668   50.7292 H       1  ZINC000821442454    0.1000
@<TRIPOS>BOND
     1     1     2    1
     2     1    28    1
     3     1    29    1
     4     1    30    1
     5     2     3    1
     6     2    31    1
     7     2    32    1
     8     3     4    2
     9     3     5    2
    10     3     6   am
    11     6    27    1
    12     6     7    1
    13     7     8    1
    14     7    33    1
    15     7    34    1
    16     8     9    1
    17     8    35    1
    18     8    36    1
    19     9    10    1
    20     9    37    1
    21     9    38    1
    22    10    11    1
    23    10    12    1
    24    10    27    1
    25    12    13    2
    26    12    14   am
    27    14    15    1
    28    14    39    1
    29    15    25   ar
    30    15    16   ar
    31    16    17   ar
    32    16    40    1
    33    17    18   ar
    34    17    41    1
    35    18    19    1
    36    18    24   ar
    37    19    23    1
    38    19    20    2
    39    20    21    1
    40    21    22    1
    41    21    42    1
    42    22    23    2
    43    24    25   ar
    44    24    43    1
    45    25    26    1
    46    27    44    1
    47    27    45    1
@<TRIPOS>SUBSTRUCTURE
     1 ZINC000821442454        1 TEMP              0 ****  ****    0 ROOT


##########                                Name:    ZINC000020646552
##########                DOCK_Rotatable_Bonds:                   5
##########                         Heavy_Atoms:                  29
##########                    Molecular_Weight:             412.556
##########                DOCK_Rotatable_Bonds:                   5
##########                       Formal_Charge:          -0.0200012
##########                     HBond_Acceptors:                   7
##########                        HBond_Donors:                   0
##########                         Heavy_Atoms:                  29
##########                          Grid_Score:          -32.915409
##########                     Grid_vdw_energy:          -32.175644
##########                      Grid_es_energy:           -0.739765
##########           Internal_energy_repulsive:            9.188670

@<TRIPOS>MOLECULE
ZINC000020646552
 57 60 1 0 0
SMALL
USER_CHARGES


@<TRIPOS>ATOM
      1 C1         -2.6991    3.5045   55.2324 C.3     1  ZINC000020646552    0.0200
      2 N2         -4.1605    3.5605   55.3714 N.3     1  ZINC000020646552   -0.5400
      3 C3         -4.6394    2.5384   56.3115 C.3     1  ZINC000020646552    0.0400
      4 C4         -6.1361    2.7454   56.5671 C.3     1  ZINC000020646552    0.1200
      5 N5         -6.8318    2.7737   55.2715 N.am    1  ZINC000020646552   -0.6100
      6 C6         -7.9074    1.9932   55.0467 C.2     1  ZINC000020646552    0.5300
      7 O7         -8.4679    2.0281   53.9718 O.2     1  ZINC000020646552   -0.5200
      8 C8         -8.4132    1.0770   56.1310 C.3     1  ZINC000020646552   -0.1500
      9 S9         -9.8652    0.1774   55.5319 S.3     1  ZINC000020646552    0.0500
     10 C10       -10.2829   -0.7305   56.9830 C.ar    1  ZINC000020646552    0.1500
     11 N11        -9.7301   -0.4252   58.1521 N.ar    1  ZINC000020646552   -0.5200
     12 C12       -10.0439   -1.1082   59.2441 C.ar    1  ZINC000020646552    0.3800
     13 C13        -9.4110   -0.7401   60.5341 C.ar    1  ZINC000020646552   -0.0500
     14 C14        -8.1205   -0.2142   60.5551 C.ar    1  ZINC000020646552   -0.0700
     15 C15        -7.5368    0.1271   61.7582 C.ar    1  ZINC000020646552   -0.1300
     16 C16        -8.2301   -0.0520   62.9417 C.ar    1  ZINC000020646552   -0.1000
     17 C17        -9.5110   -0.5740   62.9269 C.ar    1  ZINC000020646552   -0.1300
     18 C18       -10.1069   -0.9134   61.7292 C.ar    1  ZINC000020646552   -0.0700
     19 N19       -10.9091   -2.1113   59.2121 N.ar    1  ZINC000020646552   -0.5200
     20 C20       -11.4975   -2.4696   58.0778 C.ar    1  ZINC000020646552    0.2100
     21 C21       -11.2062   -1.7807   56.9228 C.ar    1  ZINC000020646552   -0.2100
     22 C22       -11.8484   -2.1298   55.6086 C.3     1  ZINC000020646552    0.1100
     23 O23       -12.4460   -3.4248   55.6812 O.3     1  ZINC000020646552   -0.3600
     24 C24       -13.3165   -3.5824   56.8073 C.3     1  ZINC000020646552    0.1100
     25 C25       -14.2873   -2.4018   56.8752 C.3     1  ZINC000020646552   -0.1800
     26 C26       -14.1034   -4.8873   56.6696 C.3     1  ZINC000020646552   -0.1400
     27 C27       -12.4709   -3.6187   58.0803 C.3     1  ZINC000020646552   -0.0900
     28 C28        -6.3229    3.6766   54.2279 C.3     1  ZINC000020646552    0.1100
     29 C29        -4.8189    3.4329   54.0645 C.3     1  ZINC000020646552    0.0400
     30 H30        -2.3636    4.3194   54.5910 H       1  ZINC000020646552    0.0700
     31 H31        -2.2367    3.6014   56.2147 H       1  ZINC000020646552    0.0700
     32 H32        -2.4127    2.5511   54.7884 H       1  ZINC000020646552    0.0300
     33 H33        -4.4767    1.5481   55.8860 H       1  ZINC000020646552    0.0400
     34 H34        -4.0945    2.6248   57.2515 H       1  ZINC000020646552    0.0900
     35 H35        -6.5213    1.9244   57.1717 H       1  ZINC000020646552    0.1000
     36 H36        -6.2915    3.6908   57.0868 H       1  ZINC000020646552    0.0800
     37 H37        -7.6316    0.3668   56.4007 H       1  ZINC000020646552    0.1300
     38 H38        -8.6866    1.6662   57.0063 H       1  ZINC000020646552    0.1200
     39 H39        -7.5782   -0.0742   59.6317 H       1  ZINC000020646552    0.1400
     40 H40        -6.5367    0.5344   61.7757 H       1  ZINC000020646552    0.1300
     41 H41        -7.7694    0.2164   63.8809 H       1  ZINC000020646552    0.1300
     42 H42       -10.0476   -0.7120   63.8540 H       1  ZINC000020646552    0.1300
     43 H43       -11.1070   -1.3209   61.7188 H       1  ZINC000020646552    0.1300
     44 H44       -12.6145   -1.3910   55.3734 H       1  ZINC000020646552    0.0800
     45 H45       -11.0916   -2.1246   54.8241 H       1  ZINC000020646552    0.1100
     46 H46       -14.8803   -2.3660   55.9614 H       1  ZINC000020646552    0.0700
     47 H47       -14.9487   -2.5241   57.7330 H       1  ZINC000020646552    0.0700
     48 H48       -13.7245   -1.4742   56.9797 H       1  ZINC000020646552    0.0600
     49 H49       -13.4099   -5.7272   56.6278 H       1  ZINC000020646552    0.0700
     50 H50       -14.7651   -5.0048   57.5277 H       1  ZINC000020646552    0.0800
     51 H51       -14.6959   -4.8595   55.7550 H       1  ZINC000020646552    0.0700
     52 H52       -11.9163   -4.5562   58.1207 H       1  ZINC000020646552    0.1000
     53 H53       -13.1227   -3.5458   58.9509 H       1  ZINC000020646552    0.1000
     54 H54        -6.8316    3.4712   53.2861 H       1  ZINC000020646552    0.0900
     55 H55        -6.4962    4.7116   54.5228 H       1  ZINC000020646552    0.0800
     56 H56        -4.4041    4.1681   53.3749 H       1  ZINC000020646552    0.0900
     57 H57        -4.6536    2.4302   53.6703 H       1  ZINC000020646552    0.0400
@<TRIPOS>BOND
     1     1     2    1
     2     1    30    1
     3     1    31    1
     4     1    32    1
     5     2    29    1
     6     2     3    1
     7     3     4    1
     8     3    33    1
     9     3    34    1
    10     4     5    1
    11     4    35    1
    12     4    36    1
    13     5     6   am
    14     5    28    1
    15     6     7    2
    16     6     8    1
    17     8     9    1
    18     8    37    1
    19     8    38    1
    20     9    10    1
    21    10    21   ar
    22    10    11   ar
    23    11    12   ar
    24    12    13    1
    25    12    19   ar
    26    13    18   ar
    27    13    14   ar
    28    14    15   ar
    29    14    39    1
    30    15    16   ar
    31    15    40    1
    32    16    17   ar
    33    16    41    1
    34    17    18   ar
    35    17    42    1
    36    18    43    1
    37    19    20   ar
    38    20    27    1
    39    20    21   ar
    40    21    22    1
    41    22    23    1
    42    22    44    1
    43    22    45    1
    44    23    24    1
    45    24    25    1
    46    24    26    1
    47    24    27    1
    48    25    46    1
    49    25    47    1
    50    25    48    1
    51    26    49    1
    52    26    50    1
    53    26    51    1
    54    27    52    1
    55    27    53    1
    56    28    29    1
    57    28    54    1
    58    28    55    1
    59    29    56    1
    60    29    57    1
@<TRIPOS>SUBSTRUCTURE
     1 ZINC000020646552        1 TEMP              0 ****  ****    0 ROOT


##########                                Name:    ZINC000642096826
##########                DOCK_Rotatable_Bonds:                  12
##########                         Heavy_Atoms:                  25
##########                    Molecular_Weight:             345.485
##########                DOCK_Rotatable_Bonds:                  12
##########                       Formal_Charge:          0.00999919
##########                     HBond_Acceptors:                   5
##########                        HBond_Donors:                   1
##########                         Heavy_Atoms:                  25
##########                          Grid_Score:          -32.911724
##########                     Grid_vdw_energy:          -31.771286
##########                      Grid_es_energy:           -1.140439
##########           Internal_energy_repulsive:           23.198669

@<TRIPOS>MOLECULE
ZINC000642096826
 56 57 1 0 0
SMALL
USER_CHARGES


@<TRIPOS>ATOM
      1 C1          0.0897   -1.7913   48.4924 C.3     1  ZINC000642096826   -0.1500
      2 C2          0.2460   -0.4553   47.7632 C.3     1  ZINC000642096826   -0.1400
      3 C3         -1.1350    0.1542   47.5138 C.3     1  ZINC000642096826    0.1200
      4 N4         -0.9834    1.4534   46.8542 N.am    1  ZINC000642096826   -0.6200
      5 C5         -1.3904    1.6172   45.4564 C.3     1  ZINC000642096826    0.1100
      6 C6         -0.4439    0.8241   44.5532 C.3     1  ZINC000642096826   -0.1400
      7 C7          0.9551    1.4404   44.6141 C.3     1  ZINC000642096826   -0.1500
      8 C8         -0.4696    2.4981   47.5332 C.2     1  ZINC000642096826    0.5200
      9 O9         -0.1312    2.3621   48.6899 O.2     1  ZINC000642096826   -0.5200
     10 C10        -0.3153    3.8351   46.8551 C.3     1  ZINC000642096826    0.0400
     11 N11        -0.0421    4.8672   47.8641 N.3     1  ZINC000642096826   -0.5200
     12 C12         1.1198    5.6815   47.4830 C.3     1  ZINC000642096826    0.0100
     13 C13        -1.2243    5.7096   48.0890 C.3     1  ZINC000642096826    0.0900
     14 C14        -1.8923    5.3042   49.3776 C.ar    1  ZINC000642096826   -0.0500
     15 C15        -2.6011    4.1177   49.4423 C.ar    1  ZINC000642096826   -0.1000
     16 C16        -3.2154    3.7409   50.6187 C.ar    1  ZINC000642096826   -0.0600
     17 C17        -3.1201    4.5594   51.7453 C.ar    1  ZINC000642096826   -0.1400
     18 C18        -3.7755    4.1616   53.0094 C.2     1  ZINC000642096826    0.5600
     19 O19        -4.8882    4.5738   53.2732 O.2     1  ZINC000642096826   -0.5300
     20 N20        -3.1392    3.3419   53.8694 N.am    1  ZINC000642096826   -0.7000
     21 C21        -3.7879    2.9490   55.1229 C.3     1  ZINC000642096826    0.0800
     22 C22        -3.0542    1.9443   56.0135 C.3     1  ZINC000642096826   -0.1900
     23 C23        -3.1411    3.4142   56.4291 C.3     1  ZINC000642096826   -0.1900
     24 C24        -2.4032    5.7547   51.6734 C.ar    1  ZINC000642096826   -0.0900
     25 C25        -1.7893    6.1172   50.4923 C.ar    1  ZINC000642096826   -0.1200
     26 H26        -0.4130   -1.6283   49.4457 H       1  ZINC000642096826    0.0600
     27 H27        -0.5027   -2.4718   47.8809 H       1  ZINC000642096826    0.0600
     28 H28         1.0736   -2.2256   48.6700 H       1  ZINC000642096826    0.0600
     29 H29         0.8385    0.2252   48.3747 H       1  ZINC000642096826    0.0600
     30 H30         0.7488   -0.6184   46.8099 H       1  ZINC000642096826    0.0600
     31 H31        -1.7161   -0.5116   46.8758 H       1  ZINC000642096826    0.0800
     32 H32        -1.6504    0.2875   48.4649 H       1  ZINC000642096826    0.0800
     33 H33        -2.4083    1.2487   45.3288 H       1  ZINC000642096826    0.0800
     34 H34        -1.3499    2.6728   45.1875 H       1  ZINC000642096826    0.0800
     35 H35        -0.4001   -0.2108   44.8925 H       1  ZINC000642096826    0.0700
     36 H36        -0.8101    0.8548   43.5270 H       1  ZINC000642096826    0.0700
     37 H37         1.6294    0.8754   43.9705 H       1  ZINC000642096826    0.0600
     38 H38         0.9112    2.4754   44.2747 H       1  ZINC000642096826    0.0600
     39 H39         1.3213    1.4097   45.6402 H       1  ZINC000642096826    0.0600
     40 H40         0.5127    3.7904   46.1477 H       1  ZINC000642096826    0.0600
     41 H41        -1.2345    4.0810   46.3236 H       1  ZINC000642096826    0.1000
     42 H42         0.9240    6.1693   46.5282 H       1  ZINC000642096826    0.0200
     43 H43         1.2999    6.4376   48.2471 H       1  ZINC000642096826    0.0700
     44 H44         1.9974    5.0417   47.3910 H       1  ZINC000642096826    0.0900
     45 H45        -0.9196    6.7543   48.1507 H       1  ZINC000642096826    0.0500
     46 H46        -1.9231    5.5832   47.2620 H       1  ZINC000642096826    0.0900
     47 H47        -2.6740    3.4853   48.5698 H       1  ZINC000642096826    0.1300
     48 H48        -3.7690    2.8149   50.6677 H       1  ZINC000642096826    0.1400
     49 H49        -2.2518    3.0119   53.6584 H       1  ZINC000642096826    0.4000
     50 H50        -4.8760    2.8939   55.0920 H       1  ZINC000642096826    0.1400
     51 H51        -3.6596    1.2277   56.5684 H       1  ZINC000642096826    0.1000
     52 H52        -2.0889    1.5755   55.6667 H       1  ZINC000642096826    0.1000
     53 H53        -2.2328    4.0124   56.3558 H       1  ZINC000642096826    0.1000
     54 H54        -3.8036    3.6646   57.2576 H       1  ZINC000642096826    0.1100
     55 H55        -2.3260    6.3926   52.5415 H       1  ZINC000642096826    0.1200
     56 H56        -1.2339    7.0418   50.4354 H       1  ZINC000642096826    0.1300
@<TRIPOS>BOND
     1     1     2    1
     2     1    26    1
     3     1    27    1
     4     1    28    1
     5     2     3    1
     6     2    29    1
     7     2    30    1
     8     3     4    1
     9     3    31    1
    10     3    32    1
    11     4     5    1
    12     4     8   am
    13     5     6    1
    14     5    33    1
    15     5    34    1
    16     6     7    1
    17     6    35    1
    18     6    36    1
    19     7    37    1
    20     7    38    1
    21     7    39    1
    22     8     9    2
    23     8    10    1
    24    10    11    1
    25    10    40    1
    26    10    41    1
    27    11    12    1
    28    11    13    1
    29    12    42    1
    30    12    43    1
    31    12    44    1
    32    13    14    1
    33    13    45    1
    34    13    46    1
    35    14    25   ar
    36    14    15   ar
    37    15    16   ar
    38    15    47    1
    39    16    17   ar
    40    16    48    1
    41    17    18    1
    42    17    24   ar
    43    18    19    2
    44    18    20   am
    45    20    21    1
    46    20    49    1
    47    21    23    1
    48    21    22    1
    49    21    50    1
    50    22    23    1
    51    22    51    1
    52    22    52    1
    53    23    53    1
    54    23    54    1
    55    24    25   ar
    56    24    55    1
    57    25    56    1
@<TRIPOS>SUBSTRUCTURE
     1 ZINC000642096826        1 TEMP              0 ****  ****    0 ROOT


##########                                Name:    ZINC000863246516
##########                DOCK_Rotatable_Bonds:                   5
##########                         Heavy_Atoms:                  25
##########                    Molecular_Weight:             356.489
##########                DOCK_Rotatable_Bonds:                   5
##########                       Formal_Charge:         -0.00999938
##########                     HBond_Acceptors:                   5
##########                        HBond_Donors:                   0
##########                         Heavy_Atoms:                  25
##########                          Grid_Score:          -32.849899
##########                     Grid_vdw_energy:          -30.170252
##########                      Grid_es_energy:           -2.679648
##########           Internal_energy_repulsive:           29.966480

@<TRIPOS>MOLECULE
ZINC000863246516
 49 52 1 0 0
SMALL
USER_CHARGES


@<TRIPOS>ATOM
      1 C1          2.9535    0.3962   40.5328 C.3     1  ZINC000863246516   -0.0600
      2 C2          2.2971    0.5579   41.8797 C.2     1  ZINC000863246516   -0.2000
      3 C3          1.0628    0.2133   42.2192 C.2     1  ZINC000863246516    0.0900
      4 C4          0.1184   -0.4197   41.2301 C.3     1  ZINC000863246516   -0.1000
      5 N5          0.6903    0.4595   43.5070 N.am    1  ZINC000863246516   -0.5300
      6 C6         -0.6496    0.1192   43.9919 C.3     1  ZINC000863246516    0.1200
      7 C7         -1.1522    1.2262   44.9208 C.3     1  ZINC000863246516   -0.1500
      8 C8         -1.1919    0.7137   46.3374 C.2     1  ZINC000863246516    0.5400
      9 O9         -1.2157   -0.4802   46.5500 O.2     1  ZINC000863246516   -0.5300
     10 N10        -1.2011    1.5819   47.3682 N.am    1  ZINC000863246516   -0.6100
     11 C11        -1.1752    3.0439   47.2464 C.3     1  ZINC000863246516    0.1100
     12 C12        -1.6566    3.6098   48.5959 C.3     1  ZINC000863246516   -0.1300
     13 H13        -2.6883    3.9605   48.6141 H       1  ZINC000863246516    0.1000
     14 C14        -0.6151    4.5130   49.2772 C.3     1  ZINC000863246516   -0.1200
     15 C15         0.1075    3.2286   49.7146 C.3     1  ZINC000863246516   -0.0600
     16 H16         0.8403    2.8726   48.9905 H       1  ZINC000863246516    0.1000
     17 C17         0.6552    3.2930   51.1171 C.ar    1  ZINC000863246516   -0.0700
     18 C18         2.0200    3.2366   51.3294 C.ar    1  ZINC000863246516   -0.1200
     19 C19         2.5223    3.2956   52.6159 C.ar    1  ZINC000863246516   -0.1200
     20 C20         1.6600    3.4115   53.6901 C.ar    1  ZINC000863246516   -0.1200
     21 C21         0.2953    3.4690   53.4777 C.ar    1  ZINC000863246516   -0.1200
     22 C22        -0.2069    3.4142   52.1908 C.ar    1  ZINC000863246516   -0.1200
     23 C23        -1.2673    2.5082   49.6131 C.3     1  ZINC000863246516   -0.1100
     24 H24        -1.8492    2.4634   50.5336 H       1  ZINC000863246516    0.1200
     25 C25        -1.2449    1.2135   48.7870 C.3     1  ZINC000863246516    0.1200
     26 C26         1.6022    1.0262   44.3128 C.2     1  ZINC000863246516    0.4800
     27 O27         1.4621    1.3223   45.4862 O.2     1  ZINC000863246516   -0.4700
     28 S28         3.0132    1.2423   43.3493 S.3     1  ZINC000863246516    0.0100
     29 H29         3.9755    0.7726   40.5792 H       1  ZINC000863246516    0.0700
     30 H30         2.9671   -0.6589   40.2595 H       1  ZINC000863246516    0.0800
     31 H31         2.3930    0.9580   39.7856 H       1  ZINC000863246516    0.0800
     32 H32         0.6175   -0.5243   40.2667 H       1  ZINC000863246516    0.0900
     33 H33        -0.1817   -1.4030   41.5924 H       1  ZINC000863246516    0.0800
     34 H34        -0.7639    0.2101   41.1157 H       1  ZINC000863246516    0.0800
     35 H35        -1.3282    0.0199   43.1447 H       1  ZINC000863246516    0.1000
     36 H36        -0.6098   -0.8232   44.5380 H       1  ZINC000863246516    0.1000
     37 H37        -0.4798    2.0822   44.8629 H       1  ZINC000863246516    0.1000
     38 H38        -2.1537    1.5296   44.6159 H       1  ZINC000863246516    0.1000
     39 H39        -0.1599    3.3832   47.0406 H       1  ZINC000863246516    0.0700
     40 H40        -1.8447    3.3636   46.4478 H       1  ZINC000863246516    0.0800
     41 H41        -0.0402    5.1198   48.5778 H       1  ZINC000863246516    0.0800
     42 H42        -1.0172    5.0916   50.1088 H       1  ZINC000863246516    0.0900
     43 H43         2.6937    3.1460   50.4903 H       1  ZINC000863246516    0.1200
     44 H44         3.5886    3.2508   52.7818 H       1  ZINC000863246516    0.1200
     45 H45         2.0525    3.4570   54.6952 H       1  ZINC000863246516    0.1200
     46 H46        -0.3785    3.5591   54.3168 H       1  ZINC000863246516    0.1200
     47 H47        -1.2731    3.4590   52.0249 H       1  ZINC000863246516    0.1200
     48 H48        -2.1359    0.6236   49.0021 H       1  ZINC000863246516    0.0700
     49 H49        -0.3530    0.6362   49.0306 H       1  ZINC000863246516    0.0700
@<TRIPOS>BOND
     1     1     2    1
     2     1    29    1
     3     1    30    1
     4     1    31    1
     5     2    28    1
     6     2     3    2
     7     3     4    1
     8     3     5    1
     9     4    32    1
    10     4    33    1
    11     4    34    1
    12     5     6    1
    13     5    26   am
    14     6     7    1
    15     6    35    1
    16     6    36    1
    17     7     8    1
    18     7    37    1
    19     7    38    1
    20     8     9    2
    21     8    10   am
    22    10    25    1
    23    10    11    1
    24    11    12    1
    25    11    39    1
    26    11    40    1
    27    12    13    1
    28    12    23    1
    29    12    14    1
    30    14    15    1
    31    14    41    1
    32    14    42    1
    33    15    16    1
    34    15    17    1
    35    15    23    1
    36    17    22   ar
    37    17    18   ar
    38    18    19   ar
    39    18    43    1
    40    19    20   ar
    41    19    44    1
    42    20    21   ar
    43    20    45    1
    44    21    22   ar
    45    21    46    1
    46    22    47    1
    47    23    24    1
    48    23    25    1
    49    25    48    1
    50    25    49    1
    51    26    27    2
    52    26    28    1
@<TRIPOS>SUBSTRUCTURE
     1 ZINC000863246516        1 TEMP              0 ****  ****    0 ROOT


##########                                Name:    ZINC000523863446
##########                DOCK_Rotatable_Bonds:                  10
##########                         Heavy_Atoms:                  29
##########                    Molecular_Weight:             396.533
##########                DOCK_Rotatable_Bonds:                  10
##########                       Formal_Charge:          -0.0200008
##########                     HBond_Acceptors:                   6
##########                        HBond_Donors:                   1
##########                         Heavy_Atoms:                  29
##########                          Grid_Score:          -32.843262
##########                     Grid_vdw_energy:          -32.295261
##########                      Grid_es_energy:           -0.547999
##########           Internal_energy_repulsive:           21.458790

@<TRIPOS>MOLECULE
ZINC000523863446
 61 63 1 0 0
SMALL
USER_CHARGES


@<TRIPOS>ATOM
      1 C1         -2.9438    2.1535   55.6783 C.3     1  ZINC000523863446   -0.1700
      2 C2         -3.8381    3.3781   55.8826 C.3     1  ZINC000523863446    0.1500
      3 H3         -3.2264    4.2285   56.1838 H       1  ZINC000523863446    0.1300
      4 C4         -4.5487    3.7018   54.5937 C.2     1  ZINC000523863446    0.5100
      5 O5         -5.7027    3.3638   54.4361 O.2     1  ZINC000523863446   -0.5100
      6 N6         -3.9017    4.3668   53.6162 N.am    1  ZINC000523863446   -0.6000
      7 C7         -2.5071    4.7734   53.8058 C.3     1  ZINC000523863446    0.0700
      8 C8         -4.5932    4.6830   52.3638 C.3     1  ZINC000523863446    0.1000
      9 C9         -3.6019    4.6822   51.2287 C.2     1  ZINC000523863446    0.5000
     10 O10        -3.2746    5.7278   50.7086 O.2     1  ZINC000523863446   -0.5200
     11 N11        -3.0792    3.5194   50.7915 N.am    1  ZINC000523863446   -0.7200
     12 C12        -2.1142    3.5187   49.6892 C.3     1  ZINC000523863446    0.1900
     13 H13        -2.4879    4.1446   48.8787 H       1  ZINC000523863446    0.1000
     14 C14        -1.9210    2.0884   49.1814 C.3     1  ZINC000523863446   -0.1200
     15 C15        -1.1962    2.1189   47.8343 C.3     1  ZINC000523863446   -0.0900
     16 C16         0.1379    1.3798   47.9563 C.3     1  ZINC000523863446   -0.1200
     17 C17         0.8627    1.4103   46.6091 C.3     1  ZINC000523863446   -0.1200
     18 C18        -0.0033    0.7279   45.5484 C.3     1  ZINC000523863446   -0.1200
     19 C19        -1.3374    1.4670   45.4266 C.3     1  ZINC000523863446   -0.1200
     20 C20        -2.0623    1.4365   46.7736 C.3     1  ZINC000523863446   -0.1100
     21 C21        -0.7952    4.0615   50.1759 C.ar    1  ZINC000523863446   -0.0900
     22 C22        -0.2023    5.1257   49.5226 C.ar    1  ZINC000523863446   -0.1100
     23 C23         1.0075    5.6235   49.9691 C.ar    1  ZINC000523863446   -0.1200
     24 C24         1.6242    5.0572   51.0692 C.ar    1  ZINC000523863446   -0.1200
     25 C25         1.0308    3.9937   51.7231 C.ar    1  ZINC000523863446   -0.1200
     26 C26        -0.1811    3.4987   51.2791 C.ar    1  ZINC000523863446   -0.1000
     27 N27        -4.8256    3.0929   56.9265 N.pl3   1  ZINC000523863446   -0.3600
     28 C28        -5.3614    3.9914   57.7792 C.2     1  ZINC000523863446    0.0600
     29 C29        -6.2272    3.3315   58.5830 C.2     1  ZINC000523863446   -0.2700
     30 C30        -6.2202    1.9838   58.2089 C.2     1  ZINC000523863446    0.0500
     31 N31        -5.3850    1.8408   57.2119 N.2     1  ZINC000523863446   -0.2900
     32 H32        -3.5555    1.3031   55.3772 H       1  ZINC000523863446    0.0700
     33 H33        -2.2090    2.3658   54.9017 H       1  ZINC000523863446    0.1000
     34 H34        -2.4298    1.9194   56.6106 H       1  ZINC000523863446    0.0800
     35 H35        -1.8465    3.9812   53.4536 H       1  ZINC000523863446    0.0700
     36 H36        -2.3145    5.6853   53.2405 H       1  ZINC000523863446    0.0800
     37 H37        -2.3228    4.9564   54.8643 H       1  ZINC000523863446    0.0800
     38 H38        -5.3627    3.9345   52.1747 H       1  ZINC000523863446    0.1100
     39 H39        -5.0549    5.6672   52.4422 H       1  ZINC000523863446    0.1100
     40 H40        -3.3419    2.6830   51.2066 H       1  ZINC000523863446    0.4000
     41 H41        -1.3272    1.5245   49.9008 H       1  ZINC000523863446    0.0800
     42 H42        -2.8936    1.6115   49.0599 H       1  ZINC000523863446    0.0700
     43 H43        -1.0132    3.1533   47.5435 H       1  ZINC000523863446    0.0700
     44 H44         0.7549    1.8659   48.7119 H       1  ZINC000523863446    0.0600
     45 H45        -0.0451    0.3454   48.2471 H       1  ZINC000523863446    0.0600
     46 H46         1.0457    2.4447   46.3183 H       1  ZINC000523863446    0.0600
     47 H47         1.8132    0.8837   46.6959 H       1  ZINC000523863446    0.0600
     48 H48         0.5131    0.7496   44.5888 H       1  ZINC000523863446    0.0600
     49 H49        -0.1863   -0.3066   45.8392 H       1  ZINC000523863446    0.0600
     50 H50        -1.1544    2.5014   45.1358 H       1  ZINC000523863446    0.0600
     51 H51        -1.9544    0.9808   44.6709 H       1  ZINC000523863446    0.0600
     52 H52        -2.2452    0.4021   47.0644 H       1  ZINC000523863446    0.0600
     53 H53        -3.0126    1.9630   46.6868 H       1  ZINC000523863446    0.0600
     54 H54        -0.6841    5.5680   48.6632 H       1  ZINC000523863446    0.1200
     55 H55         1.4712    6.4544   49.4583 H       1  ZINC000523863446    0.1200
     56 H56         2.5698    5.4458   51.4176 H       1  ZINC000523863446    0.1200
     57 H57         1.5128    3.5512   52.5822 H       1  ZINC000523863446    0.1200
     58 H58        -0.6447    2.6677   51.7899 H       1  ZINC000523863446    0.1200
     59 H59        -5.1387    5.0475   57.8140 H       1  ZINC000523863446    0.1700
     60 H60        -6.8185    3.7682   59.3742 H       1  ZINC000523863446    0.1500
     61 H61        -6.8068    1.1980   58.6613 H       1  ZINC000523863446    0.1800
@<TRIPOS>BOND
     1     1     2    1
     2     1    32    1
     3     1    33    1
     4     1    34    1
     5     2     3    1
     6     2     4    1
     7     2    27    1
     8     4     5    2
     9     4     6   am
    10     6     7    1
    11     6     8    1
    12     7    35    1
    13     7    36    1
    14     7    37    1
    15     8     9    1
    16     8    38    1
    17     8    39    1
    18     9    10    2
    19     9    11   am
    20    11    12    1
    21    11    40    1
    22    12    13    1
    23    12    14    1
    24    12    21    1
    25    14    15    1
    26    14    41    1
    27    14    42    1
    28    15    20    1
    29    15    16    1
    30    15    43    1
    31    16    17    1
    32    16    44    1
    33    16    45    1
    34    17    18    1
    35    17    46    1
    36    17    47    1
    37    18    19    1
    38    18    48    1
    39    18    49    1
    40    19    20    1
    41    19    50    1
    42    19    51    1
    43    20    52    1
    44    20    53    1
    45    21    26   ar
    46    21    22   ar
    47    22    23   ar
    48    22    54    1
    49    23    24   ar
    50    23    55    1
    51    24    25   ar
    52    24    56    1
    53    25    26   ar
    54    25    57    1
    55    26    58    1
    56    27    31    1
    57    27    28    1
    58    28    29    2
    59    28    59    1
    60    29    30    1
    61    29    60    1
    62    30    31    2
    63    30    61    1
@<TRIPOS>SUBSTRUCTURE
     1 ZINC000523863446        1 TEMP              0 ****  ****    0 ROOT


##########                                Name:    ZINC001408567397
##########                DOCK_Rotatable_Bonds:                   9
##########                         Heavy_Atoms:                  24
##########                    Molecular_Weight:             336.434
##########                DOCK_Rotatable_Bonds:                   9
##########                       Formal_Charge:          -0.0199996
##########                     HBond_Acceptors:                   7
##########                        HBond_Donors:                   2
##########                         Heavy_Atoms:                  24
##########                          Grid_Score:          -32.814854
##########                     Grid_vdw_energy:          -34.263672
##########                      Grid_es_energy:            1.448818
##########           Internal_energy_repulsive:           18.371222

@<TRIPOS>MOLECULE
ZINC001408567397
 52 53 1 0 0
SMALL
USER_CHARGES


@<TRIPOS>ATOM
      1 C1         -1.4033    2.8841   45.8581 C.3     1  ZINC001408567397   -0.0800
      2 C2         -1.1923    1.4260   46.1753 C.2     1  ZINC001408567397    0.0900
      3 N3         -1.3672    0.4278   45.3478 N.2     1  ZINC001408567397   -0.2900
      4 N4         -1.0666   -0.7605   46.0258 N.pl3   1  ZINC001408567397   -0.4700
      5 C5         -0.7062   -0.4400   47.2862 C.2     1  ZINC001408567397    0.1100
      6 C6         -0.2995   -1.4076   48.3674 C.3     1  ZINC001408567397   -0.1000
      7 C7         -0.7700    0.9066   47.4034 C.2     1  ZINC001408567397   -0.2200
      8 C8         -0.4510    1.7049   48.6411 C.3     1  ZINC001408567397   -0.0600
      9 C9         -1.7326    2.1718   49.2819 C.2     1  ZINC001408567397    0.5100
     10 O10        -2.7877    1.6624   48.9689 O.2     1  ZINC001408567397   -0.5300
     11 N11        -1.7062    3.1556   50.2028 N.am    1  ZINC001408567397   -0.7300
     12 C12        -2.9518    3.6083   50.8270 C.3     1  ZINC001408567397    0.1100
     13 C13        -2.6275    4.5532   51.9858 C.3     1  ZINC001408567397    0.1000
     14 N14        -2.1454    3.7754   53.1299 N.am    1  ZINC001408567397   -0.6200
     15 C15        -0.7063    3.6206   53.3562 C.3     1  ZINC001408567397    0.0700
     16 C16        -3.0258    3.2022   53.9741 C.2     1  ZINC001408567397    0.5100
     17 O17        -2.6267    2.5596   54.9220 O.2     1  ZINC001408567397   -0.5300
     18 C18        -4.5062    3.3599   53.7403 C.3     1  ZINC001408567397   -0.1300
     19 C19        -5.2699    2.9176   54.9902 C.3     1  ZINC001408567397   -0.1100
     20 H20        -4.8742    1.9642   55.3404 H       1  ZINC001408567397    0.0900
     21 C21        -5.1092    3.9730   56.0886 C.3     1  ZINC001408567397   -0.1200
     22 C22        -5.9405    3.5575   57.3062 C.3     1  ZINC001408567397   -0.1600
     23 C23        -7.4003    3.3792   56.8809 C.3     1  ZINC001408567397    0.0600
     24 O24        -7.4754    2.4071   55.8361 O.3     1  ZINC001408567397   -0.3800
     25 C25        -6.7553    2.7625   54.6540 C.3     1  ZINC001408567397    0.0600
     26 H26        -0.4756    3.3109   45.4770 H       1  ZINC001408567397    0.0800
     27 H27        -2.1850    2.9828   45.1049 H       1  ZINC001408567397    0.0700
     28 H28        -1.7018    3.4133   46.7631 H       1  ZINC001408567397    0.0800
     29 H29        -1.1099   -1.6559   45.6549 H       1  ZINC001408567397    0.4400
     30 H30         0.7784   -1.5645   48.3280 H       1  ZINC001408567397    0.0800
     31 H31        -0.5721   -1.0003   49.3410 H       1  ZINC001408567397    0.0900
     32 H32        -0.8108   -2.3583   48.2153 H       1  ZINC001408567397    0.0700
     33 H33         0.1002    1.0805   49.3442 H       1  ZINC001408567397    0.1000
     34 H34         0.1554    2.5691   48.3699 H       1  ZINC001408567397    0.1000
     35 H35        -0.8624    3.5640   50.4522 H       1  ZINC001408567397    0.4000
     36 H36        -3.5583    4.1333   50.0890 H       1  ZINC001408567397    0.0700
     37 H37        -3.5033    2.7469   51.2040 H       1  ZINC001408567397    0.0700
     38 H38        -1.8565    5.2581   51.6749 H       1  ZINC001408567397    0.0800
     39 H39        -3.5261    5.1001   52.2712 H       1  ZINC001408567397    0.0900
     40 H40        -0.3488    4.4321   53.9899 H       1  ZINC001408567397    0.0600
     41 H41        -0.5162    2.6659   53.8466 H       1  ZINC001408567397    0.0800
     42 H42        -0.1831    3.6485   52.4003 H       1  ZINC001408567397    0.0800
     43 H43        -4.7312    4.4050   53.5279 H       1  ZINC001408567397    0.1000
     44 H44        -4.8079    2.7438   52.8933 H       1  ZINC001408567397    0.1000
     45 H45        -4.0593    4.0473   56.3721 H       1  ZINC001408567397    0.0700
     46 H46        -5.4581    4.9379   55.7210 H       1  ZINC001408567397    0.0600
     47 H47        -5.5594    2.6168   57.7036 H       1  ZINC001408567397    0.0700
     48 H48        -5.8761    4.3303   58.0722 H       1  ZINC001408567397    0.0700
     49 H49        -7.9889    3.0421   57.7341 H       1  ZINC001408567397    0.0900
     50 H50        -7.7929    4.3304   56.5213 H       1  ZINC001408567397    0.0500
     51 H51        -7.1388    3.7056   54.2644 H       1  ZINC001408567397    0.0400
     52 H52        -6.8802    1.9816   53.9038 H       1  ZINC001408567397    0.1100
@<TRIPOS>BOND
     1     1     2    1
     2     1    26    1
     3     1    27    1
     4     1    28    1
     5     2     7    1
     6     2     3    2
     7     3     4    1
     8     4     5    1
     9     4    29    1
    10     5     6    1
    11     5     7    2
    12     6    30    1
    13     6    31    1
    14     6    32    1
    15     7     8    1
    16     8     9    1
    17     8    33    1
    18     8    34    1
    19     9    10    2
    20     9    11   am
    21    11    12    1
    22    11    35    1
    23    12    13    1
    24    12    36    1
    25    12    37    1
    26    13    14    1
    27    13    38    1
    28    13    39    1
    29    14    15    1
    30    14    16   am
    31    15    40    1
    32    15    41    1
    33    15    42    1
    34    16    17    2
    35    16    18    1
    36    18    19    1
    37    18    43    1
    38    18    44    1
    39    19    20    1
    40    19    25    1
    41    19    21    1
    42    21    22    1
    43    21    45    1
    44    21    46    1
    45    22    23    1
    46    22    47    1
    47    22    48    1
    48    23    24    1
    49    23    49    1
    50    23    50    1
    51    24    25    1
    52    25    51    1
    53    25    52    1
@<TRIPOS>SUBSTRUCTURE
     1 ZINC001408567397        1 TEMP              0 ****  ****    0 ROOT


##########                                Name:    ZINC001282645012
##########                DOCK_Rotatable_Bonds:                   9
##########                         Heavy_Atoms:                  27
##########                    Molecular_Weight:             372.511
##########                DOCK_Rotatable_Bonds:                   9
##########                       Formal_Charge:          -0.0200004
##########                     HBond_Acceptors:                   6
##########                        HBond_Donors:                   1
##########                         Heavy_Atoms:                  27
##########                          Grid_Score:          -32.787533
##########                     Grid_vdw_energy:          -31.635593
##########                      Grid_es_energy:           -1.151941
##########           Internal_energy_repulsive:           38.804245

@<TRIPOS>MOLECULE
ZINC001282645012
 59 61 1 0 0
SMALL
USER_CHARGES


@<TRIPOS>ATOM
      1 C1         -5.2462    4.6482   54.2676 C.2     1  ZINC001282645012   -0.1900
      2 C2         -4.3320    3.7259   54.4399 C.2     1  ZINC001282645012   -0.1300
      3 C3         -3.0285    4.0732   55.1118 C.3     1  ZINC001282645012   -0.0500
      4 C4         -3.3083    4.6430   56.5039 C.3     1  ZINC001282645012   -0.1500
      5 C5         -2.1691    2.8138   55.2394 C.3     1  ZINC001282645012   -0.1400
      6 C6         -2.2959    5.0998   54.2868 C.2     1  ZINC001282645012    0.5500
      7 O7         -1.8974    6.1215   54.8044 O.2     1  ZINC001282645012   -0.5300
      8 N8         -2.0837    4.8823   52.9737 N.am    1  ZINC001282645012   -0.6300
      9 C9         -1.3943    5.7236   51.9373 C.3     1  ZINC001282645012    0.1200
     10 H10        -0.9966    6.6765   52.2863 H       1  ZINC001282645012    0.1300
     11 C11        -2.5009    5.8168   50.8439 C.3     1  ZINC001282645012   -0.1300
     12 C12        -3.2294    4.4546   50.9518 C.3     1  ZINC001282645012   -0.1300
     13 C13        -2.4580    3.7209   52.0971 C.3     1  ZINC001282645012    0.1200
     14 H14        -3.0006    2.9121   52.5866 H       1  ZINC001282645012    0.1200
     15 C15        -1.0846    3.3286   51.4739 C.3     1  ZINC001282645012    0.1300
     16 H16        -0.5419    2.6528   52.1348 H       1  ZINC001282645012    0.1000
     17 N17        -1.2718    2.7182   50.1553 N.am    1  ZINC001282645012   -0.7100
     18 C18        -0.2219    2.1722   49.5102 C.2     1  ZINC001282645012    0.5100
     19 O19         0.8781    2.1875   50.0206 O.2     1  ZINC001282645012   -0.5100
     20 C20        -0.4148    1.5428   48.1546 C.3     1  ZINC001282645012    0.1200
     21 H21        -1.4638    1.6142   47.8668 H       1  ZINC001282645012    0.1300
     22 C22         0.4475    2.2753   47.1247 C.3     1  ZINC001282645012   -0.1100
     23 C23        -0.3106    2.3694   45.7992 C.3     1  ZINC001282645012   -0.1000
     24 C24        -0.9133    1.0051   45.4583 C.3     1  ZINC001282645012   -0.1500
     25 C25        -1.4303    3.4046   45.9244 C.3     1  ZINC001282645012   -0.1500
     26 N26        -0.0185    0.1335   48.2097 N.pl3   1  ZINC001282645012   -0.4500
     27 C27        -0.8528   -0.9486   48.1294 C.2     1  ZINC001282645012   -0.0600
     28 C28        -0.0777   -2.0460   48.2216 C.2     1  ZINC001282645012   -0.0200
     29 N29         1.1952   -1.6449   48.3549 N.2     1  ZINC001282645012   -0.4900
     30 C30         1.2388   -0.3406   48.3435 C.2     1  ZINC001282645012    0.1900
     31 C31        -0.3403    4.7159   51.3874 C.3     1  ZINC001282645012   -0.1400
     32 H32        -5.0658    5.6575   54.6072 H       1  ZINC001282645012    0.1000
     33 H33        -6.1785    4.4004   53.7821 H       1  ZINC001282645012    0.1000
     34 H34        -4.5123    2.7167   54.1003 H       1  ZINC001282645012    0.1100
     35 H35        -3.8381    3.9005   57.1007 H       1  ZINC001282645012    0.0700
     36 H36        -2.3654    4.8941   56.9899 H       1  ZINC001282645012    0.0700
     37 H37        -3.9204    5.5402   56.4130 H       1  ZINC001282645012    0.0600
     38 H38        -1.9699    2.4079   54.2476 H       1  ZINC001282645012    0.0600
     39 H39        -1.2264    3.0650   55.7254 H       1  ZINC001282645012    0.0700
     40 H40        -2.6990    2.0713   55.8361 H       1  ZINC001282645012    0.0700
     41 H41        -3.1859    6.6368   51.0597 H       1  ZINC001282645012    0.0800
     42 H42        -2.0557    5.9369   49.8563 H       1  ZINC001282645012    0.0800
     43 H43        -4.2757    4.5991   51.2211 H       1  ZINC001282645012    0.0700
     44 H44        -3.1454    3.8993   50.0177 H       1  ZINC001282645012    0.0800
     45 H45        -2.1514    2.7071   49.7465 H       1  ZINC001282645012    0.4000
     46 H46         0.6724    3.2785   47.4868 H       1  ZINC001282645012    0.0900
     47 H47         1.3772    1.7267   46.9734 H       1  ZINC001282645012    0.0800
     48 H48         0.3762    2.6710   45.0084 H       1  ZINC001282645012    0.0700
     49 H49        -1.6002    0.7034   46.2491 H       1  ZINC001282645012    0.0600
     50 H50        -1.4534    1.0721   44.5139 H       1  ZINC001282645012    0.0600
     51 H51        -0.1156    0.2676   45.3691 H       1  ZINC001282645012    0.0500
     52 H52        -0.9962    4.3919   46.0824 H       1  ZINC001282645012    0.0600
     53 H53        -2.0235    3.4106   45.0101 H       1  ZINC001282645012    0.0600
     54 H54        -2.0686    3.1488   46.7701 H       1  ZINC001282645012    0.0600
     55 H55        -1.9265   -0.9266   48.0143 H       1  ZINC001282645012    0.1700
     56 H56        -0.4208   -3.0697   48.1935 H       1  ZINC001282645012    0.1700
     57 H57         2.1318    0.2601   48.4329 H       1  ZINC001282645012    0.2000
     58 H58        -0.1066    4.9623   50.3517 H       1  ZINC001282645012    0.0900
     59 H59         0.5651    4.7044   51.9941 H       1  ZINC001282645012    0.0900
@<TRIPOS>BOND
     1     1     2    2
     2     1    32    1
     3     1    33    1
     4     2     3    1
     5     2    34    1
     6     3     4    1
     7     3     5    1
     8     3     6    1
     9     4    35    1
    10     4    36    1
    11     4    37    1
    12     5    38    1
    13     5    39    1
    14     5    40    1
    15     6     7    2
    16     6     8   am
    17     8    13    1
    18     8     9    1
    19     9    10    1
    20     9    31    1
    21     9    11    1
    22    11    12    1
    23    11    41    1
    24    11    42    1
    25    12    13    1
    26    12    43    1
    27    12    44    1
    28    13    14    1
    29    13    15    1
    30    15    16    1
    31    15    17    1
    32    15    31    1
    33    17    18   am
    34    17    45    1
    35    18    19    2
    36    18    20    1
    37    20    21    1
    38    20    22    1
    39    20    26    1
    40    22    23    1
    41    22    46    1
    42    22    47    1
    43    23    24    1
    44    23    25    1
    45    23    48    1
    46    24    49    1
    47    24    50    1
    48    24    51    1
    49    25    52    1
    50    25    53    1
    51    25    54    1
    52    26    30    1
    53    26    27    1
    54    27    28    2
    55    27    55    1
    56    28    29    1
    57    28    56    1
    58    29    30    2
    59    30    57    1
    60    31    58    1
    61    31    59    1
@<TRIPOS>SUBSTRUCTURE
     1 ZINC001282645012        1 TEMP              0 ****  ****    0 ROOT


##########                                Name:    ZINC000562561773
##########                DOCK_Rotatable_Bonds:                   6
##########                         Heavy_Atoms:                  26
##########                    Molecular_Weight:             371.466
##########                DOCK_Rotatable_Bonds:                   6
##########                       Formal_Charge:           0.0199999
##########                     HBond_Acceptors:                   9
##########                        HBond_Donors:                   0
##########                         Heavy_Atoms:                  26
##########                          Grid_Score:          -32.780449
##########                     Grid_vdw_energy:          -32.905281
##########                      Grid_es_energy:            0.124834
##########           Internal_energy_repulsive:            8.580443

@<TRIPOS>MOLECULE
ZINC000562561773
 47 50 1 0 0
SMALL
USER_CHARGES


@<TRIPOS>ATOM
      1 C1          0.4127    1.3297   44.7544 C.3     1  ZINC000562561773   -0.1100
      2 C2         -0.2101    1.9769   45.9646 C.ar    1  ZINC000562561773   -0.0400
      3 C3         -0.7349    3.2516   45.8709 C.ar    1  ZINC000562561773   -0.1200
      4 C4         -1.3069    3.8502   46.9761 C.ar    1  ZINC000562561773   -0.0700
      5 C5         -1.3563    3.1692   48.1907 C.ar    1  ZINC000562561773   -0.0300
      6 C6         -1.9713    3.8113   49.3792 C.2     1  ZINC000562561773    0.2200
      7 N7         -2.5241    4.9954   49.4228 N.2     1  ZINC000562561773   -0.3700
      8 O8         -2.9315    5.2243   50.5419 O.3     1  ZINC000562561773    0.0900
      9 C9         -2.6742    4.1864   51.3440 C.2     1  ZINC000562561773    0.1900
     10 C10        -3.0211    4.0777   52.8065 C.3     1  ZINC000562561773   -0.0100
     11 C11        -4.4188    3.4737   52.9557 C.3     1  ZINC000562561773   -0.1200
     12 S12        -4.8784    3.4412   54.7061 S.3     1  ZINC000562561773    0.0600
     13 C13        -6.5083    2.7834   54.5823 C.2     1  ZINC000562561773    0.2100
     14 N14        -7.1338    2.4481   53.4747 N.2     1  ZINC000562561773   -0.3300
     15 N15        -8.3085    2.0017   53.7391 N.2     1  ZINC000562561773   -0.0300
     16 N16        -8.5183    2.0179   55.0109 N.2     1  ZINC000562561773   -0.0700
     17 N17        -7.3508    2.5226   55.6097 N.pl3   1  ZINC000562561773   -0.3600
     18 C18        -7.1023    2.7303   57.0384 C.3     1  ZINC000562561773    0.0800
     19 N19        -2.0700    3.2788   50.6183 N.2     1  ZINC000562561773   -0.4600
     20 C20        -0.8278    1.8847   48.2866 C.ar    1  ZINC000562561773   -0.1100
     21 C21        -0.2600    1.2879   47.1707 C.ar    1  ZINC000562561773    0.0800
     22 N22         0.2711   -0.0010   47.2617 N.3     1  ZINC000562561773   -0.4800
     23 C23         1.3246   -0.0699   48.3065 C.3     1  ZINC000562561773    0.0400
     24 C24         1.4054   -1.5832   48.6292 C.3     1  ZINC000562561773   -0.1200
     25 C25        -0.0708   -2.0341   48.5442 C.3     1  ZINC000562561773   -0.1300
     26 C26        -0.7655   -0.9739   47.6695 C.3     1  ZINC000562561773    0.0400
     27 H27        -0.3510    0.7827   44.2015 H       1  ZINC000562561773    0.0700
     28 H28         0.8450    2.0980   44.1135 H       1  ZINC000562561773    0.0600
     29 H29         1.1945    0.6401   45.0731 H       1  ZINC000562561773    0.0800
     30 H30        -0.6974    3.7815   44.9305 H       1  ZINC000562561773    0.1400
     31 H31        -1.7158    4.8469   46.8989 H       1  ZINC000562561773    0.1400
     32 H32        -2.2935    3.4378   53.3059 H       1  ZINC000562561773    0.1200
     33 H33        -3.0035    5.0693   53.2587 H       1  ZINC000562561773    0.1300
     34 H34        -5.1371    4.0789   52.4026 H       1  ZINC000562561773    0.1100
     35 H35        -4.4197    2.4577   52.5609 H       1  ZINC000562561773    0.1100
     36 H36        -6.6663    1.8277   57.4664 H       1  ZINC000562561773    0.1000
     37 H37        -6.4127    3.5643   57.1698 H       1  ZINC000562561773    0.1000
     38 H38        -8.0428    2.9537   57.5420 H       1  ZINC000562561773    0.1100
     39 H39        -0.8636    1.3531   49.2259 H       1  ZINC000562561773    0.1300
     40 H40         2.2765    0.2919   47.9176 H       1  ZINC000562561773    0.0900
     41 H41         1.0284    0.4964   49.1896 H       1  ZINC000562561773    0.0500
     42 H42         2.0111   -2.1039   47.8875 H       1  ZINC000562561773    0.0800
     43 H43         1.8005   -1.7431   49.6324 H       1  ZINC000562561773    0.0700
     44 H44        -0.1402   -3.0158   48.0754 H       1  ZINC000562561773    0.0800
     45 H45        -0.5175   -2.0562   49.5382 H       1  ZINC000562561773    0.0700
     46 H46        -1.5424   -0.4697   48.2441 H       1  ZINC000562561773    0.0500
     47 H47        -1.1990   -1.4459   46.7879 H       1  ZINC000562561773    0.0800
@<TRIPOS>BOND
     1     1     2    1
     2     1    27    1
     3     1    28    1
     4     1    29    1
     5     2    21   ar
     6     2     3   ar
     7     3     4   ar
     8     3    30    1
     9     4     5   ar
    10     4    31    1
    11     5     6    1
    12     5    20   ar
    13     6    19    1
    14     6     7    2
    15     7     8    1
    16     8     9    1
    17     9    10    1
    18     9    19    2
    19    10    11    1
    20    10    32    1
    21    10    33    1
    22    11    12    1
    23    11    34    1
    24    11    35    1
    25    12    13    1
    26    13    17    1
    27    13    14    2
    28    14    15    1
    29    15    16    2
    30    16    17    1
    31    17    18    1
    32    18    36    1
    33    18    37    1
    34    18    38    1
    35    20    21   ar
    36    20    39    1
    37    21    22    1
    38    22    26    1
    39    22    23    1
    40    23    24    1
    41    23    40    1
    42    23    41    1
    43    24    25    1
    44    24    42    1
    45    24    43    1
    46    25    26    1
    47    25    44    1
    48    25    45    1
    49    26    46    1
    50    26    47    1
@<TRIPOS>SUBSTRUCTURE
     1 ZINC000562561773        1 TEMP              0 ****  ****    0 ROOT


##########                                Name:    ZINC000561219098
##########                DOCK_Rotatable_Bonds:                   4
##########                         Heavy_Atoms:                  28
##########                    Molecular_Weight:             423.273
##########                DOCK_Rotatable_Bonds:                   4
##########                       Formal_Charge:          0.00999953
##########                     HBond_Acceptors:                   9
##########                        HBond_Donors:                   1
##########                         Heavy_Atoms:                  28
##########                          Grid_Score:          -32.767673
##########                     Grid_vdw_energy:          -31.633766
##########                      Grid_es_energy:           -1.133906
##########           Internal_energy_repulsive:            9.438479

@<TRIPOS>MOLECULE
ZINC000561219098
 45 48 1 0 0
SMALL
USER_CHARGES


@<TRIPOS>ATOM
      1 C1         -0.9771    2.7929   56.4685 C.3     1  ZINC000561219098    0.0700
      2 N2         -1.8158    3.3156   55.3871 N.pl3   1  ZINC000561219098   -0.4500
      3 C3         -3.0707    3.8294   55.5353 C.2     1  ZINC000561219098   -0.0100
      4 C4         -3.5237    4.2066   54.3248 C.2     1  ZINC000561219098   -0.1700
      5 C5         -2.5056    3.9145   53.3825 C.2     1  ZINC000561219098   -0.1100
      6 C6         -2.5608    4.1611   51.9189 C.2     1  ZINC000561219098    0.1600
      7 N7         -3.5464    4.7508   51.2746 N.2     1  ZINC000561219098   -0.2700
      8 N8         -3.2282    4.7961   49.9117 N.pl3   1  ZINC000561219098   -0.4700
      9 C9         -2.0046    4.2089   49.7456 C.2     1  ZINC000561219098    0.0300
     10 C10        -1.2836    4.0390   48.4736 C.2     1  ZINC000561219098    0.5900
     11 O11        -0.5277    4.9078   48.0823 O.2     1  ZINC000561219098   -0.5000
     12 N12        -1.4609    2.9207   47.7427 N.am    1  ZINC000561219098   -0.6100
     13 C13        -2.3700    1.8559   48.1956 C.3     1  ZINC000561219098    0.0500
     14 C14        -1.6192    0.5208   48.1349 C.3     1  ZINC000561219098    0.0500
     15 O15        -1.0508    0.3591   46.8331 O.3     1  ZINC000561219098   -0.3700
     16 C16        -0.0795    1.3508   46.4914 C.3     1  ZINC000561219098    0.1200
     17 H17         0.7198    1.3483   47.2325 H       1  ZINC000561219098    0.0900
     18 C18         0.4939    1.0461   45.1315 C.ar    1  ZINC000561219098   -0.0500
     19 C19        -0.2889    0.4293   44.1742 C.ar    1  ZINC000561219098   -0.1000
     20 C20         0.2374    0.1496   42.9247 C.ar    1  ZINC000561219098    0.1200
     21 F21        -0.5277   -0.4530   41.9885 F       1  ZINC000561219098   -0.1200
     22 C22         1.5491    0.4885   42.6347 C.ar    1  ZINC000561219098   -0.0600
     23 Cl23        2.2103    0.1388   41.0681 Cl      1  ZINC000561219098   -0.0300
     24 C24         2.3314    1.1057   43.5938 C.ar    1  ZINC000561219098   -0.0700
     25 C25         1.8025    1.3893   44.8400 C.ar    1  ZINC000561219098   -0.0300
     26 Cl26        2.7845    2.1646   46.0434 Cl      1  ZINC000561219098   -0.0400
     27 C27        -0.7558    2.7310   46.4651 C.3     1  ZINC000561219098    0.0900
     28 C28        -1.5694    3.8108   50.9911 C.2     1  ZINC000561219098   -0.1700
     29 C29        -1.4665    3.3724   54.0716 C.2     1  ZINC000561219098    0.0300
     30 H30        -0.3729    3.6003   56.8824 H       1  ZINC000561219098    0.0800
     31 H31        -1.6111    2.3757   57.2509 H       1  ZINC000561219098    0.0900
     32 H32        -0.3230    2.0137   56.0770 H       1  ZINC000561219098    0.0900
     33 H33        -3.6100    3.9185   56.4667 H       1  ZINC000561219098    0.1700
     34 H34        -4.4851    4.6500   54.1113 H       1  ZINC000561219098    0.1400
     35 H35        -3.7788    5.1762   49.2094 H       1  ZINC000561219098    0.4400
     36 H36        -2.6854    2.0536   49.2201 H       1  ZINC000561219098    0.1000
     37 H37        -3.2426    1.8163   47.5436 H       1  ZINC000561219098    0.0900
     38 H38        -0.8255    0.5152   48.8820 H       1  ZINC000561219098    0.0700
     39 H39        -2.3128   -0.2963   48.3333 H       1  ZINC000561219098    0.1200
     40 H40        -1.3113    0.1651   44.4011 H       1  ZINC000561219098    0.1600
     41 H41         3.3541    1.3698   43.3684 H       1  ZINC000561219098    0.1600
     42 H42        -1.4643    2.7769   45.6381 H       1  ZINC000561219098    0.0900
     43 H43        -0.0004    3.5077   46.3456 H       1  ZINC000561219098    0.1100
     44 H44        -0.6368    3.3128   51.2116 H       1  ZINC000561219098    0.1600
     45 H45        -0.5305    3.0382   53.6488 H       1  ZINC000561219098    0.1700
@<TRIPOS>BOND
     1     1     2    1
     2     1    30    1
     3     1    31    1
     4     1    32    1
     5     2    29    1
     6     2     3    1
     7     3     4    2
     8     3    33    1
     9     4     5    1
    10     4    34    1
    11     5     6    1
    12     5    29    2
    13     6    28    1
    14     6     7    2
    15     7     8    1
    16     8     9    1
    17     8    35    1
    18     9    10    1
    19     9    28    2
    20    10    11    2
    21    10    12   am
    22    12    27    1
    23    12    13    1
    24    13    14    1
    25    13    36    1
    26    13    37    1
    27    14    15    1
    28    14    38    1
    29    14    39    1
    30    15    16    1
    31    16    17    1
    32    16    18    1
    33    16    27    1
    34    18    25   ar
    35    18    19   ar
    36    19    20   ar
    37    19    40    1
    38    20    21    1
    39    20    22   ar
    40    22    23    1
    41    22    24   ar
    42    24    25   ar
    43    24    41    1
    44    25    26    1
    45    27    42    1
    46    27    43    1
    47    28    44    1
    48    29    45    1
@<TRIPOS>SUBSTRUCTURE
     1 ZINC000561219098        1 TEMP              0 ****  ****    0 ROOT


##########                                Name:    ZINC001039825450
##########                DOCK_Rotatable_Bonds:                   8
##########                         Heavy_Atoms:                  24
##########                    Molecular_Weight:             337.339
##########                DOCK_Rotatable_Bonds:                   8
##########                       Formal_Charge:           0.0100001
##########                     HBond_Acceptors:                  11
##########                        HBond_Donors:                   4
##########                         Heavy_Atoms:                  24
##########                          Grid_Score:          -32.718094
##########                     Grid_vdw_energy:          -33.117523
##########                      Grid_es_energy:            0.399431
##########           Internal_energy_repulsive:           11.938303

@<TRIPOS>MOLECULE
ZINC001039825450
 43 45 1 0 0
SMALL
USER_CHARGES


@<TRIPOS>ATOM
      1 O1         -5.0680    2.6395   53.9787 O.2     1  ZINC001039825450   -0.5100
      2 C2         -4.0365    3.2243   54.2332 C.2     1  ZINC001039825450    0.5000
      3 C3         -3.5337    3.2821   55.6527 C.3     1  ZINC001039825450    0.1300
      4 N4         -4.6229    2.9405   56.5709 N.pl3   1  ZINC001039825450   -0.1500
      5 N5         -5.1571    1.7749   56.6691 N.2     1  ZINC001039825450   -0.2800
      6 C6         -6.0996    1.8187   57.5835 C.2     1  ZINC001039825450   -0.0200
      7 C7         -6.1113    3.1323   58.0581 C.2     1  ZINC001039825450   -0.0200
      8 N8         -5.1713    3.7640   57.3924 N.2     1  ZINC001039825450   -0.2800
      9 N9         -3.3368    3.8177   53.2459 N.am    1  ZINC001039825450   -0.7300
     10 C10        -3.8256    3.7616   51.8660 C.3     1  ZINC001039825450    0.1000
     11 C11        -2.6644    4.0160   50.9028 C.3     1  ZINC001039825450    0.1100
     12 O12        -2.7208    5.3472   50.3863 O.3     1  ZINC001039825450   -0.5400
     13 C13        -1.3042    3.7510   51.6007 C.3     1  ZINC001039825450   -0.1600
     14 C14        -0.4012    3.3898   50.3949 C.3     1  ZINC001039825450    0.1000
     15 N15        -1.2719    2.6186   49.4890 N.am    1  ZINC001039825450   -0.6100
     16 C16        -0.8546    1.7259   48.5697 C.2     1  ZINC001039825450    0.5200
     17 O17         0.3297    1.5005   48.4371 O.2     1  ZINC001039825450   -0.5100
     18 C18        -1.8596    1.0078   47.7062 C.3     1  ZINC001039825450    0.1100
     19 H19        -2.8209    0.9401   48.2155 H       1  ZINC001039825450    0.1200
     20 C20        -1.3458   -0.3959   47.3315 C.3     1  ZINC001039825450    0.1100
     21 N21        -1.2568   -0.3585   45.8642 N.am    1  ZINC001039825450   -0.7400
     22 C22        -1.6457    0.8476   45.4303 C.2     1  ZINC001039825450    0.7100
     23 O23        -1.6701    1.1528   44.2536 O.2     1  ZINC001039825450   -0.5800
     24 N24        -2.0082    1.6892   46.4116 N.am    1  ZINC001039825450   -0.7200
     25 C25        -2.6709    2.9843   49.7551 C.3     1  ZINC001039825450    0.1200
     26 H26        -2.7165    2.5716   55.7780 H       1  ZINC001039825450    0.1400
     27 H27        -3.1766    4.2886   55.8711 H       1  ZINC001039825450    0.1400
     28 H28        -6.7351    1.0058   57.9024 H       1  ZINC001039825450    0.2000
     29 H29        -6.7578    3.5433   58.8195 H       1  ZINC001039825450    0.2000
     30 H30        -2.5097    4.2821   53.4489 H       1  ZINC001039825450    0.4000
     31 H31        -4.2504    2.7769   51.6708 H       1  ZINC001039825450    0.0900
     32 H32        -4.5917    4.5232   51.7205 H       1  ZINC001039825450    0.0900
     33 H33        -2.6978    5.3957   49.4207 H       1  ZINC001039825450    0.3800
     34 H34        -0.9427    4.6471   52.1050 H       1  ZINC001039825450    0.0900
     35 H35        -1.3786    2.9158   52.2971 H       1  ZINC001039825450    0.0900
     36 H36        -0.0471    4.2949   49.9016 H       1  ZINC001039825450    0.0800
     37 H37         0.4414    2.7801   50.7213 H       1  ZINC001039825450    0.0800
     38 H38        -0.3638   -0.5735   47.7700 H       1  ZINC001039825450    0.0900
     39 H39        -2.0533   -1.1605   47.6526 H       1  ZINC001039825450    0.1000
     40 H40        -0.9632   -1.0909   45.3001 H       1  ZINC001039825450    0.4400
     41 H41        -2.3164    2.6003   46.2853 H       1  ZINC001039825450    0.4400
     42 H42        -3.2345    2.1007   50.0542 H       1  ZINC001039825450    0.0900
     43 H43        -3.1149    3.4254   48.8627 H       1  ZINC001039825450    0.0900
@<TRIPOS>BOND
     1     1     2    2
     2     2     3    1
     3     2     9   am
     4     3     4    1
     5     3    26    1
     6     3    27    1
     7     4     8    1
     8     4     5    1
     9     5     6    2
    10     6     7    1
    11     6    28    1
    12     7     8    2
    13     7    29    1
    14     9    10    1
    15     9    30    1
    16    10    11    1
    17    10    31    1
    18    10    32    1
    19    11    25    1
    20    11    12    1
    21    11    13    1
    22    12    33    1
    23    13    14    1
    24    13    34    1
    25    13    35    1
    26    14    15    1
    27    14    36    1
    28    14    37    1
    29    15    16   am
    30    15    25    1
    31    16    17    2
    32    16    18    1
    33    18    19    1
    34    18    24    1
    35    18    20    1
    36    20    21    1
    37    20    38    1
    38    20    39    1
    39    21    22   am
    40    21    40    1
    41    22    23    2
    42    22    24   am
    43    24    41    1
    44    25    42    1
    45    25    43    1
@<TRIPOS>SUBSTRUCTURE
     1 ZINC001039825450        1 TEMP              0 ****  ****    0 ROOT


##########                                Name:    ZINC001087843226
##########                DOCK_Rotatable_Bonds:                   6
##########                         Heavy_Atoms:                  27
##########                    Molecular_Weight:             368.479
##########                DOCK_Rotatable_Bonds:                   6
##########                       Formal_Charge:        -4.47035e-07
##########                     HBond_Acceptors:                   6
##########                        HBond_Donors:                   1
##########                         Heavy_Atoms:                  27
##########                          Grid_Score:          -32.711662
##########                     Grid_vdw_energy:          -30.178904
##########                      Grid_es_energy:           -2.532757
##########           Internal_energy_repulsive:           27.834921

@<TRIPOS>MOLECULE
ZINC001087843226
 55 58 1 0 0
SMALL
USER_CHARGES


@<TRIPOS>ATOM
      1 C1         -1.2293    4.2285   54.1717 C.3     1  ZINC001087843226   -0.1500
      2 C2         -2.3778    4.0033   55.1571 C.3     1  ZINC001087843226   -0.1500
      3 C3         -3.3665    2.9959   54.5665 C.3     1  ZINC001087843226    0.0700
      4 H4         -2.8439    2.0781   54.2971 H       1  ZINC001087843226    0.1000
      5 C5         -4.0472    3.5980   53.3192 C.3     1  ZINC001087843226    0.1300
      6 H6         -4.0161    4.6870   53.3511 H       1  ZINC001087843226    0.1000
      7 N7         -3.4176    3.0993   52.0940 N.am    1  ZINC001087843226   -0.7200
      8 C8         -3.4132    3.8594   50.9811 C.2     1  ZINC001087843226    0.5600
      9 O9         -3.9328    4.9582   50.9935 O.2     1  ZINC001087843226   -0.5300
     10 C10        -2.7762    3.3569   49.7451 C.ar    1  ZINC001087843226   -0.1400
     11 C11        -2.9208    2.0189   49.3796 C.ar    1  ZINC001087843226   -0.0800
     12 C12        -2.3240    1.5559   48.2250 C.ar    1  ZINC001087843226   -0.1300
     13 C13        -1.5857    2.4156   47.4337 C.ar    1  ZINC001087843226   -0.0400
     14 C14        -0.9375    1.9013   46.1741 C.3     1  ZINC001087843226   -0.1200
     15 C15        -1.4371    3.7476   47.7892 C.ar    1  ZINC001087843226   -0.1100
     16 C16        -2.0330    4.2238   48.9384 C.ar    1  ZINC001087843226   -0.0300
     17 C17        -1.7237    5.6960   49.1051 C.3     1  ZINC001087843226   -0.0800
     18 C18        -0.5218    5.9637   48.1744 C.3     1  ZINC001087843226   -0.1200
     19 C19        -0.6892    4.8680   47.0981 C.3     1  ZINC001087843226   -0.0800
     20 C20        -5.5074    3.0872   53.4373 C.3     1  ZINC001087843226   -0.1400
     21 C21        -5.7265    3.1176   54.9704 C.3     1  ZINC001087843226    0.0400
     22 N22        -4.4270    2.7000   55.5471 N.3     1  ZINC001087843226   -0.5100
     23 C23        -4.1719    3.3852   56.8213 C.3     1  ZINC001087843226    0.1100
     24 C24        -5.3160    3.1280   57.7678 C.2     1  ZINC001087843226    0.0800
     25 N25        -5.9320    1.9926   57.9105 N.2     1  ZINC001087843226   -0.2700
     26 O26        -6.9382    2.1762   58.8937 O.3     1  ZINC001087843226    0.0300
     27 N27        -6.8487    3.5295   59.3103 N.2     1  ZINC001087843226   -0.2800
     28 C28        -5.8806    4.0795   58.6402 C.2     1  ZINC001087843226    0.0900
     29 C29        -5.4378    5.5143   58.7685 C.3     1  ZINC001087843226   -0.0900
     30 H30        -0.5614    4.9966   54.5616 H       1  ZINC001087843226    0.0600
     31 H31        -0.6760    3.2987   54.0400 H       1  ZINC001087843226    0.0600
     32 H32        -1.6323    4.5507   53.2115 H       1  ZINC001087843226    0.0600
     33 H33        -1.9809    3.6155   56.0953 H       1  ZINC001087843226    0.0800
     34 H34        -2.8888    4.9483   55.3417 H       1  ZINC001087843226    0.0700
     35 H35        -3.0040    2.2219   52.0838 H       1  ZINC001087843226    0.4000
     36 H36        -3.4975    1.3473   49.9983 H       1  ZINC001087843226    0.1300
     37 H37        -2.4335    0.5202   47.9394 H       1  ZINC001087843226    0.1300
     38 H38        -1.6277    2.0142   45.3382 H       1  ZINC001087843226    0.0800
     39 H39        -0.0292    2.4700   45.9748 H       1  ZINC001087843226    0.0700
     40 H40        -0.6868    0.8479   46.2986 H       1  ZINC001087843226    0.0700
     41 H41        -2.5793    6.2990   48.8010 H       1  ZINC001087843226    0.0800
     42 H42        -1.4566    5.9116   50.1396 H       1  ZINC001087843226    0.0900
     43 H43        -0.5904    6.9559   47.7284 H       1  ZINC001087843226    0.0800
     44 H44         0.4188    5.8433   48.7118 H       1  ZINC001087843226    0.0700
     45 H45         0.2861    4.5159   46.7620 H       1  ZINC001087843226    0.0800
     46 H46        -1.2651    5.2504   46.2555 H       1  ZINC001087843226    0.0800
     47 H47        -6.1987    3.7606   52.9305 H       1  ZINC001087843226    0.0800
     48 H48        -5.5986    2.0725   53.0498 H       1  ZINC001087843226    0.0800
     49 H49        -5.9818    4.1257   55.2973 H       1  ZINC001087843226    0.0600
     50 H50        -6.5099    2.4155   55.2558 H       1  ZINC001087843226    0.0800
     51 H51        -3.2472    3.0078   57.2579 H       1  ZINC001087843226    0.1200
     52 H52        -4.0797    4.4569   56.6453 H       1  ZINC001087843226    0.0700
     53 H53        -4.6034    5.5759   59.4672 H       1  ZINC001087843226    0.1000
     54 H54        -5.1233    5.8860   57.7933 H       1  ZINC001087843226    0.0900
     55 H55        -6.2664    6.1185   59.1378 H       1  ZINC001087843226    0.0900
@<TRIPOS>BOND
     1     1     2    1
     2     1    30    1
     3     1    31    1
     4     1    32    1
     5     2     3    1
     6     2    33    1
     7     2    34    1
     8     3     4    1
     9     3    22    1
    10     3     5    1
    11     5     6    1
    12     5     7    1
    13     5    20    1
    14     7     8   am
    15     7    35    1
    16     8     9    2
    17     8    10    1
    18    10    16   ar
    19    10    11   ar
    20    11    12   ar
    21    11    36    1
    22    12    13   ar
    23    12    37    1
    24    13    14    1
    25    13    15   ar
    26    14    38    1
    27    14    39    1
    28    14    40    1
    29    15    19    1
    30    15    16   ar
    31    16    17    1
    32    17    18    1
    33    17    41    1
    34    17    42    1
    35    18    19    1
    36    18    43    1
    37    18    44    1
    38    19    45    1
    39    19    46    1
    40    20    21    1
    41    20    47    1
    42    20    48    1
    43    21    22    1
    44    21    49    1
    45    21    50    1
    46    22    23    1
    47    23    24    1
    48    23    51    1
    49    23    52    1
    50    24    28    1
    51    24    25    2
    52    25    26    1
    53    26    27    1
    54    27    28    2
    55    28    29    1
    56    29    53    1
    57    29    54    1
    58    29    55    1
@<TRIPOS>SUBSTRUCTURE
     1 ZINC001087843226        1 TEMP              0 ****  ****    0 ROOT


##########                                Name:    ZINC000482910431
##########                DOCK_Rotatable_Bonds:                   7
##########                         Heavy_Atoms:                  29
##########                    Molecular_Weight:             414.867
##########                DOCK_Rotatable_Bonds:                   7
##########                       Formal_Charge:          -0.0300001
##########                     HBond_Acceptors:                   8
##########                        HBond_Donors:                   2
##########                         Heavy_Atoms:                  29
##########                          Grid_Score:          -32.633991
##########                     Grid_vdw_energy:          -29.856447
##########                      Grid_es_energy:           -2.777545
##########           Internal_energy_repulsive:           14.728339

@<TRIPOS>MOLECULE
ZINC000482910431
 49 51 1 0 0
SMALL
USER_CHARGES


@<TRIPOS>ATOM
      1 C1         -7.9216    5.7022   59.0816 C.3     1  ZINC000482910431   -0.1500
      2 C2         -7.9875    4.1920   58.8456 C.3     1  ZINC000482910431    0.0800
      3 C3         -7.6759    3.4577   60.1514 C.3     1  ZINC000482910431   -0.1400
      4 C4         -9.3372    3.8254   58.3867 C.1     1  ZINC000482910431    0.2100
      5 N5        -10.3789    3.5425   58.0326 N.1     1  ZINC000482910431   -0.4300
      6 C6         -6.9775    3.8027   57.7972 C.ar    1  ZINC000482910431   -0.1000
      7 C7         -5.6603    4.2034   57.9257 C.ar    1  ZINC000482910431   -0.0900
      8 C8         -4.7320    3.8479   56.9668 C.ar    1  ZINC000482910431   -0.1200
      9 C9         -5.1227    3.0873   55.8727 C.ar    1  ZINC000482910431    0.1700
     10 N10        -4.1845    2.7250   54.8995 N.am    1  ZINC000482910431   -0.6800
     11 C11        -4.2074    3.3160   53.6885 C.2     1  ZINC000482910431    0.7100
     12 O12        -5.0431    4.1637   53.4414 O.2     1  ZINC000482910431   -0.5500
     13 N13        -3.3038    2.9671   52.7512 N.am    1  ZINC000482910431   -0.7300
     14 C14        -3.3297    3.6082   51.4342 C.3     1  ZINC000482910431    0.1400
     15 H15        -4.2396    4.1964   51.3151 H       1  ZINC000482910431    0.1400
     16 C16        -2.0804    4.4986   51.2411 C.3     1  ZINC000482910431   -0.1400
     17 C17        -1.7709    4.2862   49.7425 C.3     1  ZINC000482910431    0.0900
     18 N18        -2.3364    2.9738   49.4081 N.am    1  ZINC000482910431   -0.5600
     19 C19        -1.9997    2.2363   48.2672 C.ar    1  ZINC000482910431    0.2000
     20 C20        -1.9084    2.8671   47.0335 C.ar    1  ZINC000482910431   -0.1600
     21 C21        -1.5760    2.1380   45.9081 C.ar    1  ZINC000482910431   -0.0500
     22 C22        -1.3337    0.7800   46.0084 C.ar    1  ZINC000482910431   -0.1000
     23 Cl23       -0.9162   -0.1329   44.5920 Cl      1  ZINC000482910431   -0.0500
     24 C24        -1.4233    0.1469   47.2383 C.ar    1  ZINC000482910431    0.1400
     25 F25        -1.1858   -1.1796   47.3342 F       1  ZINC000482910431   -0.1200
     26 C26        -1.7508    0.8740   48.3683 C.ar    1  ZINC000482910431   -0.1900
     27 C27        -3.2228    2.5708   50.3382 C.2     1  ZINC000482910431    0.5000
     28 O28        -3.8406    1.5277   50.3032 O.2     1  ZINC000482910431   -0.4800
     29 C29        -6.4463    2.6865   55.7464 C.ar    1  ZINC000482910431   -0.1400
     30 C30        -7.3685    3.0408   56.7115 C.ar    1  ZINC000482910431   -0.0900
     31 H31        -6.9221    5.9736   59.4214 H       1  ZINC000482910431    0.0800
     32 H32        -8.1436    6.2252   58.1513 H       1  ZINC000482910431    0.0700
     33 H33        -8.6522    5.9837   59.8400 H       1  ZINC000482910431    0.0700
     34 H34        -8.4065    3.7393   60.9098 H       1  ZINC000482910431    0.0700
     35 H35        -7.7228    2.3818   59.9834 H       1  ZINC000482910431    0.0700
     36 H36        -6.6764    3.7291   60.4912 H       1  ZINC000482910431    0.0800
     37 H37        -5.3570    4.7953   58.7767 H       1  ZINC000482910431    0.1400
     38 H38        -3.7034    4.1615   57.0676 H       1  ZINC000482910431    0.1400
     39 H39        -3.5178    2.0486   55.0967 H       1  ZINC000482910431    0.4100
     40 H40        -2.6364    2.2916   52.9487 H       1  ZINC000482910431    0.4000
     41 H41        -2.3107    5.5438   51.4474 H       1  ZINC000482910431    0.1100
     42 H42        -1.2548    4.1524   51.8628 H       1  ZINC000482910431    0.1000
     43 H43        -2.2455    5.0647   49.1453 H       1  ZINC000482910431    0.0900
     44 H44        -0.6936    4.2862   49.5762 H       1  ZINC000482910431    0.1000
     45 H45        -2.0977    3.9274   46.9537 H       1  ZINC000482910431    0.1700
     46 H46        -1.5056    2.6290   44.9487 H       1  ZINC000482910431    0.1500
     47 H47        -1.8203    0.3814   49.3269 H       1  ZINC000482910431    0.1500
     48 H48        -6.7532    2.0948   54.8966 H       1  ZINC000482910431    0.1300
     49 H49        -8.3980    2.7290   56.6141 H       1  ZINC000482910431    0.1300
@<TRIPOS>BOND
     1     1     2    1
     2     1    31    1
     3     1    32    1
     4     1    33    1
     5     2     3    1
     6     2     4    1
     7     2     6    1
     8     3    34    1
     9     3    35    1
    10     3    36    1
    11     4     5    3
    12     6    30   ar
    13     6     7   ar
    14     7     8   ar
    15     7    37    1
    16     8     9   ar
    17     8    38    1
    18     9    10    1
    19     9    29   ar
    20    10    11   am
    21    10    39    1
    22    11    12    2
    23    11    13   am
    24    13    14    1
    25    13    40    1
    26    14    15    1
    27    14    27    1
    28    14    16    1
    29    16    17    1
    30    16    41    1
    31    16    42    1
    32    17    18    1
    33    17    43    1
    34    17    44    1
    35    18    19    1
    36    18    27   am
    37    19    26   ar
    38    19    20   ar
    39    20    21   ar
    40    20    45    1
    41    21    22   ar
    42    21    46    1
    43    22    23    1
    44    22    24   ar
    45    24    25    1
    46    24    26   ar
    47    26    47    1
    48    27    28    2
    49    29    30   ar
    50    29    48    1
    51    30    49    1
@<TRIPOS>SUBSTRUCTURE
     1 ZINC000482910431        1 TEMP              0 ****  ****    0 ROOT


##########                                Name:    ZINC000463741321
##########                DOCK_Rotatable_Bonds:                   7
##########                         Heavy_Atoms:                  26
##########                    Molecular_Weight:             354.467
##########                DOCK_Rotatable_Bonds:                   7
##########                       Formal_Charge:         -6.4075e-07
##########                     HBond_Acceptors:                   4
##########                        HBond_Donors:                   1
##########                         Heavy_Atoms:                  26
##########                          Grid_Score:          -32.621429
##########                     Grid_vdw_energy:          -30.757010
##########                      Grid_es_energy:           -1.864419
##########           Internal_energy_repulsive:           11.072158

@<TRIPOS>MOLECULE
ZINC000463741321
 53 55 1 0 0
SMALL
USER_CHARGES


@<TRIPOS>ATOM
      1 C1         -5.5077    3.0619   53.4980 C.3     1  ZINC000463741321   -0.1500
      2 C2         -4.2985    3.9870   53.6512 C.3     1  ZINC000463741321   -0.1100
      3 H3         -4.5938    4.8837   54.1960 H       1  ZINC000463741321    0.1000
      4 C4         -3.1955    3.2608   54.4237 C.3     1  ZINC000463741321   -0.0900
      5 C5         -2.0562    4.2368   54.7245 C.3     1  ZINC000463741321   -0.0800
      6 C6         -0.9507    3.5112   55.4470 C.ar    1  ZINC000463741321   -0.1200
      7 C7         -0.9706    3.4184   56.8256 C.ar    1  ZINC000463741321   -0.0900
      8 C8          0.0437    2.7527   57.4889 C.ar    1  ZINC000463741321   -0.1300
      9 C9          1.0786    2.1797   56.7741 C.ar    1  ZINC000463741321   -0.1000
     10 C10         1.1008    2.2715   55.3952 C.ar    1  ZINC000463741321   -0.1500
     11 C11         0.0824    2.9320   54.7295 C.ar    1  ZINC000463741321    0.1000
     12 F12         0.1031    3.0224   53.3817 F       1  ZINC000463741321   -0.1400
     13 C13        -3.7860    4.3736   52.2878 C.2     1  ZINC000463741321    0.5200
     14 O14        -4.0052    5.4831   51.8497 O.2     1  ZINC000463741321   -0.5300
     15 N15        -3.0839    3.4865   51.5552 N.am    1  ZINC000463741321   -0.7300
     16 C16        -2.5871    3.8619   50.2291 C.3     1  ZINC000463741321    0.1500
     17 H17        -3.3440    4.4498   49.7100 H       1  ZINC000463741321    0.1000
     18 C18        -1.3088    4.6915   50.3780 C.3     1  ZINC000463741321   -0.1300
     19 C19        -0.7636    5.0284   48.9874 C.3     1  ZINC000463741321   -0.1200
     20 C20        -0.5077    3.7310   48.2170 C.3     1  ZINC000463741321    0.0600
     21 N21        -1.7607    2.9741   48.1009 N.3     1  ZINC000463741321   -0.4800
     22 C22        -1.5924    1.8488   47.2909 C.ar    1  ZINC000463741321    0.1100
     23 C23        -2.1588    1.8127   46.0230 C.ar    1  ZINC000463741321   -0.1700
     24 C24        -1.9899    0.6987   45.2244 C.ar    1  ZINC000463741321   -0.0900
     25 C25        -1.2585   -0.3803   45.6859 C.ar    1  ZINC000463741321   -0.1500
     26 C26        -0.6932   -0.3477   46.9475 C.ar    1  ZINC000463741321   -0.0900
     27 C27        -0.8534    0.7655   47.7491 C.ar    1  ZINC000463741321   -0.1400
     28 C28        -2.2794    2.5983   49.4224 C.3     1  ZINC000463741321    0.0500
     29 H29        -5.2124    2.1652   52.9532 H       1  ZINC000463741321    0.0600
     30 H30        -5.8784    2.7824   54.4841 H       1  ZINC000463741321    0.0700
     31 H31        -6.2935    3.5792   52.9477 H       1  ZINC000463741321    0.0600
     32 H32        -3.6005    2.8757   55.3596 H       1  ZINC000463741321    0.0700
     33 H33        -2.8164    2.4333   53.8241 H       1  ZINC000463741321    0.0700
     34 H34        -1.6721    4.6459   53.7900 H       1  ZINC000463741321    0.0800
     35 H35        -2.4282    5.0479   55.3503 H       1  ZINC000463741321    0.0800
     36 H36        -1.7783    3.8665   57.3851 H       1  ZINC000463741321    0.1300
     37 H37         0.0273    2.6809   58.5664 H       1  ZINC000463741321    0.1300
     38 H38         1.8705    1.6602   57.2934 H       1  ZINC000463741321    0.1300
     39 H39         1.9100    1.8241   54.8369 H       1  ZINC000463741321    0.1400
     40 H40        -2.9075    2.5996   51.9061 H       1  ZINC000463741321    0.4000
     41 H41        -1.5333    5.6133   50.9145 H       1  ZINC000463741321    0.0700
     42 H42        -0.5651    4.1184   50.9318 H       1  ZINC000463741321    0.0600
     43 H43        -1.4915    5.6344   48.4482 H       1  ZINC000463741321    0.0800
     44 H44         0.1698    5.5826   49.0870 H       1  ZINC000463741321    0.0800
     45 H45        -0.1329    3.9679   47.2213 H       1  ZINC000463741321    0.0900
     46 H46         0.2306    3.1318   48.7498 H       1  ZINC000463741321    0.0500
     47 H47        -2.7308    2.6548   45.6623 H       1  ZINC000463741321    0.1200
     48 H48        -2.4300    0.6700   44.2386 H       1  ZINC000463741321    0.1200
     49 H49        -1.1286   -1.2506   45.0596 H       1  ZINC000463741321    0.1200
     50 H50        -0.1225   -1.1922   47.3049 H       1  ZINC000463741321    0.1200
     51 H51        -0.4115    0.7904   48.7342 H       1  ZINC000463741321    0.1300
     52 H52        -1.5331    2.0044   49.9500 H       1  ZINC000463741321    0.0500
     53 H53        -3.1907    2.0125   49.3016 H       1  ZINC000463741321    0.0900
@<TRIPOS>BOND
     1     1     2    1
     2     1    29    1
     3     1    30    1
     4     1    31    1
     5     2     3    1
     6     2     4    1
     7     2    13    1
     8     4     5    1
     9     4    32    1
    10     4    33    1
    11     5     6    1
    12     5    34    1
    13     5    35    1
    14     6    11   ar
    15     6     7   ar
    16     7     8   ar
    17     7    36    1
    18     8     9   ar
    19     8    37    1
    20     9    10   ar
    21     9    38    1
    22    10    11   ar
    23    10    39    1
    24    11    12    1
    25    13    14    2
    26    13    15   am
    27    15    16    1
    28    15    40    1
    29    16    17    1
    30    16    28    1
    31    16    18    1
    32    18    19    1
    33    18    41    1
    34    18    42    1
    35    19    20    1
    36    19    43    1
    37    19    44    1
    38    20    21    1
    39    20    45    1
    40    20    46    1
    41    21    22    1
    42    21    28    1
    43    22    27   ar
    44    22    23   ar
    45    23    24   ar
    46    23    47    1
    47    24    25   ar
    48    24    48    1
    49    25    26   ar
    50    25    49    1
    51    26    27   ar
    52    26    50    1
    53    27    51    1
    54    28    52    1
    55    28    53    1
@<TRIPOS>SUBSTRUCTURE
     1 ZINC000463741321        1 TEMP              0 ****  ****    0 ROOT


##########                                Name:    ZINC000980108339
##########                DOCK_Rotatable_Bonds:                   9
##########                         Heavy_Atoms:                  25
##########                    Molecular_Weight:             348.445
##########                DOCK_Rotatable_Bonds:                   9
##########                       Formal_Charge:          -0.0100001
##########                     HBond_Acceptors:                   7
##########                        HBond_Donors:                   3
##########                         Heavy_Atoms:                  25
##########                          Grid_Score:          -32.604111
##########                     Grid_vdw_energy:          -30.842531
##########                      Grid_es_energy:           -1.761580
##########           Internal_energy_repulsive:            6.858279

@<TRIPOS>MOLECULE
ZINC000980108339
 53 56 1 0 0
SMALL
USER_CHARGES


@<TRIPOS>ATOM
      1 C1          0.4335   -2.0127   48.6497 C.3     1  ZINC000980108339    0.1200
      2 N2          0.2065   -0.8463   47.7929 N.am    1  ZINC000980108339   -0.6400
      3 C3         -1.1081   -0.3534   47.3555 C.3     1  ZINC000980108339    0.1100
      4 C4         -0.7718    0.8754   46.4883 C.3     1  ZINC000980108339    0.1000
      5 H5         -1.1197    0.7288   45.4657 H       1  ZINC000980108339    0.1200
      6 C6         -1.3796    2.1217   47.0787 C.2     1  ZINC000980108339    0.5000
      7 O7         -2.1688    2.7767   46.4314 O.2     1  ZINC000980108339   -0.5200
      8 N8         -1.0462    2.5082   48.3260 N.am    1  ZINC000980108339   -0.7200
      9 C9         -1.6357    3.7206   48.8993 C.3     1  ZINC000980108339    0.1300
     10 C10        -2.0709    3.4442   50.3399 C.3     1  ZINC000980108339   -0.1200
     11 H11        -2.5960    2.4952   50.4486 H       1  ZINC000980108339    0.1000
     12 C12        -0.9500    3.6499   51.3723 C.3     1  ZINC000980108339   -0.1400
     13 C13        -2.0136    4.2843   52.2840 C.3     1  ZINC000980108339    0.1200
     14 H14        -1.6572    5.1595   52.8273 H       1  ZINC000980108339    0.1100
     15 N15        -2.6980    3.3186   53.1472 N.am    1  ZINC000980108339   -0.7200
     16 C16        -3.5712    3.7485   54.0795 C.2     1  ZINC000980108339    0.5200
     17 O17        -3.7915    4.9348   54.2029 O.2     1  ZINC000980108339   -0.5300
     18 C18        -4.2740    2.7552   54.9688 C.3     1  ZINC000980108339   -0.1100
     19 C19        -5.2678    3.4911   55.8697 C.3     1  ZINC000980108339   -0.1300
     20 H20        -6.0762    4.0089   55.3535 H       1  ZINC000980108339    0.1200
     21 C21        -4.7228    4.1299   57.1487 C.3     1  ZINC000980108339   -0.1700
     22 C22        -5.5839    2.8670   57.2304 C.3     1  ZINC000980108339   -0.1200
     23 H23        -5.0837    1.9323   57.4839 H       1  ZINC000980108339    0.1000
     24 C24        -7.0102    3.0178   57.7631 C.3     1  ZINC000980108339   -0.1300
     25 C25        -8.1404    2.3919   56.9433 C.3     1  ZINC000980108339   -0.1800
     26 C26        -7.7130    1.7559   58.2676 C.3     1  ZINC000980108339   -0.1800
     27 C27        -2.7948    4.6281   51.0027 C.3     1  ZINC000980108339   -0.1400
     28 N28         0.6965    0.9443   46.5292 N.am    1  ZINC000980108339   -0.7200
     29 C29         1.1631   -0.0561   47.2882 C.2     1  ZINC000980108339    0.7000
     30 O30         2.3480   -0.2358   47.4929 O.2     1  ZINC000980108339   -0.5800
     31 H31         1.5035   -2.1400   48.8141 H       1  ZINC000980108339    0.0900
     32 H32        -0.0658   -1.8631   49.6071 H       1  ZINC000980108339    0.0600
     33 H33         0.0318   -2.9029   48.1656 H       1  ZINC000980108339    0.0600
     34 H34        -1.6229   -1.1102   46.7634 H       1  ZINC000980108339    0.1000
     35 H35        -1.7125   -0.0617   48.2144 H       1  ZINC000980108339    0.0900
     36 H36        -0.4160    1.9836   48.8443 H       1  ZINC000980108339    0.4000
     37 H37        -0.8977    4.5227   48.8903 H       1  ZINC000980108339    0.0700
     38 H38        -2.5023    4.0177   48.3086 H       1  ZINC000980108339    0.0700
     39 H39        -0.5395    2.7187   51.7626 H       1  ZINC000980108339    0.0800
     40 H40        -0.1800    4.3497   51.0472 H       1  ZINC000980108339    0.1000
     41 H41        -2.5228    2.3697   53.0478 H       1  ZINC000980108339    0.4000
     42 H42        -4.8083    2.0313   54.3535 H       1  ZINC000980108339    0.1000
     43 H43        -3.5398    2.2365   55.5852 H       1  ZINC000980108339    0.1000
     44 H44        -3.6562    4.0259   57.3482 H       1  ZINC000980108339    0.0900
     45 H45        -5.1729    5.0678   57.4740 H       1  ZINC000980108339    0.1000
     46 H46        -7.2221    3.9532   58.2811 H       1  ZINC000980108339    0.1000
     47 H47        -9.0961    2.9157   56.9217 H       1  ZINC000980108339    0.0900
     48 H48        -7.8677    1.8728   56.0246 H       1  ZINC000980108339    0.0900
     49 H49        -7.1592    0.8183   58.2201 H       1  ZINC000980108339    0.0900
     50 H50        -8.3876    1.8611   59.1173 H       1  ZINC000980108339    0.0900
     51 H51        -2.5295    5.5954   50.5759 H       1  ZINC000980108339    0.1000
     52 H52        -3.8714    4.4865   51.0964 H       1  ZINC000980108339    0.0800
     53 H53         1.2405    1.6107   46.0813 H       1  ZINC000980108339    0.4400
@<TRIPOS>BOND
     1     1     2    1
     2     1    31    1
     3     1    32    1
     4     1    33    1
     5     2    29   am
     6     2     3    1
     7     3     4    1
     8     3    34    1
     9     3    35    1
    10     4     5    1
    11     4     6    1
    12     4    28    1
    13     6     7    2
    14     6     8   am
    15     8     9    1
    16     8    36    1
    17     9    10    1
    18     9    37    1
    19     9    38    1
    20    10    11    1
    21    10    27    1
    22    10    12    1
    23    12    13    1
    24    12    39    1
    25    12    40    1
    26    13    14    1
    27    13    15    1
    28    13    27    1
    29    15    16   am
    30    15    41    1
    31    16    17    2
    32    16    18    1
    33    18    19    1
    34    18    42    1
    35    18    43    1
    36    19    20    1
    37    19    22    1
    38    19    21    1
    39    21    22    1
    40    21    44    1
    41    21    45    1
    42    22    23    1
    43    22    24    1
    44    24    26    1
    45    24    25    1
    46    24    46    1
    47    25    26    1
    48    25    47    1
    49    25    48    1
    50    26    49    1
    51    26    50    1
    52    27    51    1
    53    27    52    1
    54    28    29   am
    55    28    53    1
    56    29    30    2
@<TRIPOS>SUBSTRUCTURE
     1 ZINC000980108339        1 TEMP              0 ****  ****    0 ROOT


##########                                Name:    ZINC000558213406
##########                DOCK_Rotatable_Bonds:                   8
##########                         Heavy_Atoms:                  30
##########                    Molecular_Weight:               408.5
##########                DOCK_Rotatable_Bonds:                   8
##########                       Formal_Charge:          -0.0299987
##########                     HBond_Acceptors:                   7
##########                        HBond_Donors:                   2
##########                         Heavy_Atoms:                  30
##########                          Grid_Score:          -32.598347
##########                     Grid_vdw_energy:          -29.733637
##########                      Grid_es_energy:           -2.864711
##########           Internal_energy_repulsive:           10.487030

@<TRIPOS>MOLECULE
ZINC000558213406
 58 61 1 0 0
SMALL
USER_CHARGES


@<TRIPOS>ATOM
      1 O1          0.9819    2.3837   49.3737 O.2     1  ZINC000558213406   -0.5700
      2 C2         -0.0379    2.3663   50.0357 C.2     1  ZINC000558213406    0.7100
      3 N3         -1.1762    1.8749   49.5071 N.am    1  ZINC000558213406   -0.6800
      4 C4         -1.1858    1.3895   48.1925 C.ar    1  ZINC000558213406    0.1700
      5 C5         -0.7681    0.0919   47.9284 C.ar    1  ZINC000558213406   -0.1300
      6 C6         -0.7783   -0.3861   46.6330 C.ar    1  ZINC000558213406   -0.1100
      7 C7         -1.2053    0.4300   45.5953 C.ar    1  ZINC000558213406    0.0600
      8 O8         -1.2146   -0.0410   44.3200 O.3     1  ZINC000558213406   -0.2500
      9 C9         -0.1100    0.1648   43.5557 C.ar    1  ZINC000558213406    0.0700
     10 C10        -0.0834   -0.2497   42.2279 C.ar    1  ZINC000558213406   -0.1500
     11 C11         1.0655   -0.0178   41.4887 C.ar    1  ZINC000558213406   -0.1300
     12 C12         2.1388    0.6126   42.0895 C.ar    1  ZINC000558213406    0.0600
     13 N13         2.0814    0.9928   43.3510 N.ar    1  ZINC000558213406   -0.4500
     14 C14         1.0056    0.7966   44.0869 C.ar    1  ZINC000558213406    0.0800
     15 C15        -1.6231    1.7265   45.8589 C.ar    1  ZINC000558213406   -0.1000
     16 C16        -1.6183    2.2038   47.1546 C.ar    1  ZINC000558213406   -0.1100
     17 N17        -0.0287    2.8331   51.2999 N.am    1  ZINC000558213406   -0.7300
     18 C18         1.2086    3.3673   51.8746 C.3     1  ZINC000558213406    0.1500
     19 H19         2.0771    2.8557   51.4596 H       1  ZINC000558213406    0.1100
     20 C20         1.3078    4.8975   51.6380 C.3     1  ZINC000558213406   -0.1400
     21 C21         2.2088    5.3370   52.8191 C.3     1  ZINC000558213406    0.1000
     22 N22         1.7933    4.4848   53.9481 N.am    1  ZINC000558213406   -0.6200
     23 C23         1.9425    4.7833   55.2539 C.2     1  ZINC000558213406    0.5400
     24 O24         2.4574    5.8313   55.5814 O.2     1  ZINC000558213406   -0.5300
     25 C25         1.4696    3.8145   56.3070 C.3     1  ZINC000558213406   -0.1000
     26 C26         2.5920    2.8269   56.6323 C.3     1  ZINC000558213406   -0.1100
     27 C27         2.1119    1.8435   57.7015 C.3     1  ZINC000558213406   -0.1200
     28 C28         1.7273    2.6131   58.9666 C.3     1  ZINC000558213406   -0.1200
     29 C29         0.6050    3.6008   58.6413 C.3     1  ZINC000558213406   -0.1200
     30 C30         1.0851    4.5843   57.5721 C.3     1  ZINC000558213406   -0.1100
     31 C31         1.1904    3.2516   53.4133 C.3     1  ZINC000558213406    0.1000
     32 H32        -1.9887    1.8573   50.0366 H       1  ZINC000558213406    0.4100
     33 H33        -0.4351   -0.5432   48.7358 H       1  ZINC000558213406    0.1300
     34 H34        -0.4535   -1.3955   46.4274 H       1  ZINC000558213406    0.1400
     35 H35        -0.9371   -0.7404   41.7843 H       1  ZINC000558213406    0.1400
     36 H36         1.1217   -0.3263   40.4552 H       1  ZINC000558213406    0.1400
     37 H37         3.0369    0.7960   41.5182 H       1  ZINC000558213406    0.1600
     38 H38         0.9958    1.1222   45.1166 H       1  ZINC000558213406    0.1700
     39 H39        -1.9554    2.3614   45.0508 H       1  ZINC000558213406    0.1400
     40 H40        -1.9439    3.2130   47.3596 H       1  ZINC000558213406    0.1500
     41 H41        -0.8412    2.8154   51.8294 H       1  ZINC000558213406    0.4000
     42 H42         1.7836    5.1149   50.6817 H       1  ZINC000558213406    0.0900
     43 H43         0.3261    5.3668   51.6999 H       1  ZINC000558213406    0.0800
     44 H44         3.2582    5.1648   52.5801 H       1  ZINC000558213406    0.0700
     45 H45         2.0398    6.3876   53.0545 H       1  ZINC000558213406    0.0800
     46 H46         0.6020    3.2692   55.9357 H       1  ZINC000558213406    0.0900
     47 H47         2.8660    2.2785   55.7309 H       1  ZINC000558213406    0.0600
     48 H48         3.4596    3.3723   57.0036 H       1  ZINC000558213406    0.0700
     49 H49         1.2443    1.2980   57.3301 H       1  ZINC000558213406    0.0600
     50 H50         2.9114    1.1399   57.9332 H       1  ZINC000558213406    0.0700
     51 H51         1.3853    1.9125   59.7283 H       1  ZINC000558213406    0.0600
     52 H52         2.5950    3.1585   59.3379 H       1  ZINC000558213406    0.0600
     53 H53        -0.2627    3.0554   58.2700 H       1  ZINC000558213406    0.0600
     54 H54         0.3310    4.1491   59.5426 H       1  ZINC000558213406    0.0700
     55 H55         1.9527    5.1297   57.9434 H       1  ZINC000558213406    0.0800
     56 H56         0.2855    5.2879   57.3403 H       1  ZINC000558213406    0.0600
     57 H57         0.1625    3.1594   53.7638 H       1  ZINC000558213406    0.0800
     58 H58         1.7719    2.3864   53.7318 H       1  ZINC000558213406    0.0800
@<TRIPOS>BOND
     1     1     2    2
     2     2     3   am
     3     2    17   am
     4     3     4    1
     5     3    32    1
     6     4    16   ar
     7     4     5   ar
     8     5     6   ar
     9     5    33    1
    10     6     7   ar
    11     6    34    1
    12     7     8    1
    13     7    15   ar
    14     8     9    1
    15     9    14   ar
    16     9    10   ar
    17    10    11   ar
    18    10    35    1
    19    11    12   ar
    20    11    36    1
    21    12    13   ar
    22    12    37    1
    23    13    14   ar
    24    14    38    1
    25    15    16   ar
    26    15    39    1
    27    16    40    1
    28    17    18    1
    29    17    41    1
    30    18    19    1
    31    18    31    1
    32    18    20    1
    33    20    21    1
    34    20    42    1
    35    20    43    1
    36    21    22    1
    37    21    44    1
    38    21    45    1
    39    22    23   am
    40    22    31    1
    41    23    24    2
    42    23    25    1
    43    25    30    1
    44    25    26    1
    45    25    46    1
    46    26    27    1
    47    26    47    1
    48    26    48    1
    49    27    28    1
    50    27    49    1
    51    27    50    1
    52    28    29    1
    53    28    51    1
    54    28    52    1
    55    29    30    1
    56    29    53    1
    57    29    54    1
    58    30    55    1
    59    30    56    1
    60    31    57    1
    61    31    58    1
@<TRIPOS>SUBSTRUCTURE
     1 ZINC000558213406        1 TEMP              0 ****  ****    0 ROOT


##########                                Name:    ZINC000892249927
##########                DOCK_Rotatable_Bonds:                   8
##########                         Heavy_Atoms:                  27
##########                    Molecular_Weight:             364.487
##########                DOCK_Rotatable_Bonds:                   8
##########                       Formal_Charge:          -0.0300015
##########                     HBond_Acceptors:                   4
##########                        HBond_Donors:                   1
##########                         Heavy_Atoms:                  27
##########                          Grid_Score:          -32.597519
##########                     Grid_vdw_energy:          -32.549931
##########                      Grid_es_energy:           -0.047589
##########           Internal_energy_repulsive:           12.012594

@<TRIPOS>MOLECULE
ZINC000892249927
 55 58 1 0 0
SMALL
USER_CHARGES


@<TRIPOS>ATOM
      1 O1         -2.2729    4.3719   49.8615 O.2     1  ZINC000892249927   -0.5300
      2 C2         -1.1209    4.1371   49.5637 C.2     1  ZINC000892249927    0.5100
      3 C3          0.0025    4.8019   50.3168 C.3     1  ZINC000892249927   -0.1400
      4 C4         -0.0244    4.3485   51.7778 C.3     1  ZINC000892249927   -0.1000
      5 C5          0.6677    2.9897   51.9029 C.3     1  ZINC000892249927   -0.0800
      6 C6          0.9194    2.6863   53.3575 C.ar    1  ZINC000892249927   -0.0900
      7 C7         -0.1257    2.7205   54.2616 C.ar    1  ZINC000892249927   -0.1100
      8 C8          0.1052    2.4421   55.5958 C.ar    1  ZINC000892249927   -0.1100
      9 C9          1.3811    2.1290   56.0258 C.ar    1  ZINC000892249927   -0.0500
     10 C10         1.6329    1.8260   57.4804 C.3     1  ZINC000892249927   -0.1200
     11 C11         2.7275    0.8094   57.8110 C.3     1  ZINC000892249927   -0.1800
     12 C12         2.9586    2.2977   58.0811 C.3     1  ZINC000892249927   -0.1700
     13 C13         2.4259    2.0933   55.1214 C.ar    1  ZINC000892249927   -0.1200
     14 C14         2.1943    2.3680   53.7866 C.ar    1  ZINC000892249927   -0.1100
     15 N15        -0.8452    3.2774   48.5630 N.am    1  ZINC000892249927   -0.7300
     16 C16        -1.9373    2.6312   47.8309 C.3     1  ZINC000892249927    0.1400
     17 H17        -2.8019    3.2945   47.8052 H       1  ZINC000892249927    0.1000
     18 C18        -2.3170    1.3213   48.5282 C.3     1  ZINC000892249927   -0.1700
     19 C19        -1.1202    0.3673   48.4916 C.3     1  ZINC000892249927    0.0600
     20 O20        -0.7296    0.1469   47.1348 O.3     1  ZINC000892249927   -0.3700
     21 C21        -0.3187    1.3299   46.4464 C.3     1  ZINC000892249927    0.1400
     22 H22         0.5235    1.7815   46.9706 H       1  ZINC000892249927    0.0700
     23 C23         0.0952    0.9757   45.0413 C.ar    1  ZINC000892249927   -0.1400
     24 C24         1.2272    1.5445   44.4786 C.ar    1  ZINC000892249927   -0.0700
     25 C25         1.5703    1.1887   43.1830 C.ar    1  ZINC000892249927   -0.1700
     26 C26         0.7780    0.2853   42.5006 C.ar    1  ZINC000892249927    0.1000
     27 N27        -0.2925   -0.2362   43.0678 N.ar    1  ZINC000892249927   -0.4900
     28 C28        -0.6457    0.0749   44.2995 C.ar    1  ZINC000892249927    0.1300
     29 C29        -1.4841    2.3246   46.4001 C.3     1  ZINC000892249927   -0.1500
     30 H30         0.9559    4.5236   49.8675 H       1  ZINC000892249927    0.0900
     31 H31        -0.1190    5.8841   50.2700 H       1  ZINC000892249927    0.0900
     32 H32         0.4970    5.0802   52.3950 H       1  ZINC000892249927    0.0700
     33 H33        -1.0582    4.2618   52.1123 H       1  ZINC000892249927    0.0700
     34 H34         0.0298    2.2162   51.4756 H       1  ZINC000892249927    0.0700
     35 H35         1.6169    3.0148   51.3676 H       1  ZINC000892249927    0.0700
     36 H36        -1.1226    2.9651   53.9257 H       1  ZINC000892249927    0.1200
     37 H37        -0.7113    2.4695   56.3024 H       1  ZINC000892249927    0.1200
     38 H38         0.7533    1.8461   58.1239 H       1  ZINC000892249927    0.1100
     39 H39         2.5682    0.1605   58.6722 H       1  ZINC000892249927    0.1000
     40 H40         3.2656    0.3599   56.9765 H       1  ZINC000892249927    0.1000
     41 H41         3.6487    2.8270   57.4242 H       1  ZINC000892249927    0.1000
     42 H42         2.9513    2.6276   59.1199 H       1  ZINC000892249927    0.1000
     43 H43         3.4227    1.8483   55.4573 H       1  ZINC000892249927    0.1200
     44 H44         3.0107    2.3402   53.0800 H       1  ZINC000892249927    0.1200
     45 H45         0.0762    3.0867   48.3274 H       1  ZINC000892249927    0.4000
     46 H46        -2.5885    1.5254   49.5639 H       1  ZINC000892249927    0.0800
     47 H47        -3.1620    0.8654   48.0121 H       1  ZINC000892249927    0.0800
     48 H48        -0.2884    0.8062   49.0425 H       1  ZINC000892249927    0.0500
     49 H49        -1.3983   -0.5824   48.9486 H       1  ZINC000892249927    0.1000
     50 H50         1.8275    2.2485   45.0359 H       1  ZINC000892249927    0.1300
     51 H51         2.4454    1.6126   42.7130 H       1  ZINC000892249927    0.1400
     52 H52         1.0380    0.0032   41.4911 H       1  ZINC000892249927    0.1600
     53 H53        -1.5291   -0.3726   44.7305 H       1  ZINC000892249927    0.1600
     54 H54        -2.3125    1.8895   45.8409 H       1  ZINC000892249927    0.0900
     55 H55        -1.1587    3.2445   45.9143 H       1  ZINC000892249927    0.0800
@<TRIPOS>BOND
     1     1     2    2
     2     2     3    1
     3     2    15   am
     4     3     4    1
     5     3    30    1
     6     3    31    1
     7     4     5    1
     8     4    32    1
     9     4    33    1
    10     5     6    1
    11     5    34    1
    12     5    35    1
    13     6    14   ar
    14     6     7   ar
    15     7     8   ar
    16     7    36    1
    17     8     9   ar
    18     8    37    1
    19     9    10    1
    20     9    13   ar
    21    10    12    1
    22    10    11    1
    23    10    38    1
    24    11    12    1
    25    11    39    1
    26    11    40    1
    27    12    41    1
    28    12    42    1
    29    13    14   ar
    30    13    43    1
    31    14    44    1
    32    15    16    1
    33    15    45    1
    34    16    17    1
    35    16    29    1
    36    16    18    1
    37    18    19    1
    38    18    46    1
    39    18    47    1
    40    19    20    1
    41    19    48    1
    42    19    49    1
    43    20    21    1
    44    21    22    1
    45    21    23    1
    46    21    29    1
    47    23    28   ar
    48    23    24   ar
    49    24    25   ar
    50    24    50    1
    51    25    26   ar
    52    25    51    1
    53    26    27   ar
    54    26    52    1
    55    27    28   ar
    56    28    53    1
    57    29    54    1
    58    29    55    1
@<TRIPOS>SUBSTRUCTURE
     1 ZINC000892249927        1 TEMP              0 ****  ****    0 ROOT


##########                                Name:    ZINC000434204837
##########                DOCK_Rotatable_Bonds:                   7
##########                         Heavy_Atoms:                  29
##########                    Molecular_Weight:             406.511
##########                DOCK_Rotatable_Bonds:                   7
##########                       Formal_Charge:          -0.0200002
##########                     HBond_Acceptors:                   8
##########                        HBond_Donors:                   0
##########                         Heavy_Atoms:                  29
##########                          Grid_Score:          -32.575676
##########                     Grid_vdw_energy:          -30.115671
##########                      Grid_es_energy:           -2.460004
##########           Internal_energy_repulsive:           15.529826

@<TRIPOS>MOLECULE
ZINC000434204837
 51 54 1 0 0
SMALL
USER_CHARGES


@<TRIPOS>ATOM
      1 C1         -0.9519    0.3272   63.6648 C.3     1  ZINC000434204837   -0.1300
      2 C2         -0.5738    1.7855   63.7071 C.ar    1  ZINC000434204837   -0.0700
      3 C3         -0.5363    2.5237   62.5393 C.ar    1  ZINC000434204837   -0.1200
      4 C4         -0.1894    3.8616   62.5781 C.ar    1  ZINC000434204837   -0.1100
      5 C5          0.1194    4.4608   63.7847 C.ar    1  ZINC000434204837   -0.1300
      6 C6          0.0810    3.7224   64.9530 C.ar    1  ZINC000434204837   -0.0900
      7 C7         -0.2700    2.3861   64.9148 C.ar    1  ZINC000434204837   -0.1000
      8 C8         -0.3118    1.5813   66.1882 C.3     1  ZINC000434204837    0.0100
      9 C9         -1.7379    1.2055   66.4984 C.2     1  ZINC000434204837    0.2000
     10 N10        -2.7642    2.0194   66.5598 N.2     1  ZINC000434204837   -0.4600
     11 C11        -3.8218    1.2461   66.8636 C.2     1  ZINC000434204837    0.1700
     12 C12        -5.2434    1.7112   67.0472 C.3     1  ZINC000434204837   -0.0300
     13 S13        -6.1570    1.4834   65.5012 S.3     1  ZINC000434204837    0.0900
     14 C14        -7.2827    0.2206   65.9943 C.2     1  ZINC000434204837    0.2100
     15 N15        -7.3992   -0.2968   67.1983 N.2     1  ZINC000434204837   -0.3300
     16 N16        -8.3162   -1.1956   67.2149 N.2     1  ZINC000434204837   -0.0200
     17 N17        -8.8455   -1.3194   66.0462 N.2     1  ZINC000434204837   -0.0700
     18 N18        -8.1971   -0.3979   65.2054 N.pl3   1  ZINC000434204837   -0.3100
     19 C19        -8.4381   -0.1721   63.8427 C.ar    1  ZINC000434204837    0.1100
     20 C20        -7.4556   -0.4614   62.9054 C.ar    1  ZINC000434204837   -0.1100
     21 C21        -7.6960   -0.2384   61.5636 C.ar    1  ZINC000434204837   -0.0900
     22 C22        -8.9136    0.2729   61.1537 C.ar    1  ZINC000434204837   -0.0600
     23 C23        -9.1727    0.5151   59.6890 C.3     1  ZINC000434204837   -0.0600
     24 C24        -8.0612    1.3947   59.1130 C.3     1  ZINC000434204837   -0.1500
     25 C25        -9.1997   -0.8232   58.9478 C.3     1  ZINC000434204837   -0.1500
     26 C26        -9.8941    0.5621   62.0849 C.ar    1  ZINC000434204837   -0.1000
     27 C27        -9.6615    0.3359   63.4274 C.ar    1  ZINC000434204837   -0.0900
     28 N28        -3.3927    0.0241   66.9695 N.2     1  ZINC000434204837   -0.3600
     29 O29        -2.1992   -0.0216   66.7577 O.3     1  ZINC000434204837    0.0900
     30 H30        -2.0315    0.2284   63.7777 H       1  ZINC000434204837    0.0800
     31 H31        -0.6458   -0.1000   62.7099 H       1  ZINC000434204837    0.0700
     32 H32        -0.4518   -0.2014   64.4764 H       1  ZINC000434204837    0.0700
     33 H33        -0.7776    2.0556   61.5965 H       1  ZINC000434204837    0.1300
     34 H34        -0.1594    4.4383   61.6655 H       1  ZINC000434204837    0.1200
     35 H35         0.3910    5.5056   63.8150 H       1  ZINC000434204837    0.1300
     36 H36         0.3226    4.1905   65.8958 H       1  ZINC000434204837    0.1300
     37 H37         0.2840    0.6768   66.0661 H       1  ZINC000434204837    0.1200
     38 H38         0.0936    2.1756   67.0071 H       1  ZINC000434204837    0.1200
     39 H39        -5.7169    1.1294   67.8380 H       1  ZINC000434204837    0.1300
     40 H40        -5.2481    2.7665   67.3198 H       1  ZINC000434204837    0.1400
     41 H41        -6.5042   -0.8601   63.2251 H       1  ZINC000434204837    0.1400
     42 H42        -6.9321   -0.4632   60.8341 H       1  ZINC000434204837    0.1400
     43 H43       -10.1327    1.0169   59.5679 H       1  ZINC000434204837    0.0800
     44 H44        -7.1012    0.8928   59.2341 H       1  ZINC000434204837    0.0600
     45 H45        -8.2486    1.5699   58.0536 H       1  ZINC000434204837    0.0600
     46 H46        -8.0419    2.3481   59.6411 H       1  ZINC000434204837    0.0600
     47 H47        -9.9915   -1.4499   59.3581 H       1  ZINC000434204837    0.0600
     48 H48        -9.3871   -0.6480   57.8884 H       1  ZINC000434204837    0.0600
     49 H49        -8.2397   -1.3249   59.0688 H       1  ZINC000434204837    0.0600
     50 H50       -10.8440    0.9617   61.7617 H       1  ZINC000434204837    0.1400
     51 H51       -10.4277    0.5618   64.1543 H       1  ZINC000434204837    0.1400
@<TRIPOS>BOND
     1     1     2    1
     2     1    30    1
     3     1    31    1
     4     1    32    1
     5     2     7   ar
     6     2     3   ar
     7     3     4   ar
     8     3    33    1
     9     4     5   ar
    10     4    34    1
    11     5     6   ar
    12     5    35    1
    13     6     7   ar
    14     6    36    1
    15     7     8    1
    16     8     9    1
    17     8    37    1
    18     8    38    1
    19     9    29    1
    20     9    10    2
    21    10    11    1
    22    11    12    1
    23    11    28    2
    24    12    13    1
    25    12    39    1
    26    12    40    1
    27    13    14    1
    28    14    18    1
    29    14    15    2
    30    15    16    1
    31    16    17    2
    32    17    18    1
    33    18    19    1
    34    19    27   ar
    35    19    20   ar
    36    20    21   ar
    37    20    41    1
    38    21    22   ar
    39    21    42    1
    40    22    23    1
    41    22    26   ar
    42    23    24    1
    43    23    25    1
    44    23    43    1
    45    24    44    1
    46    24    45    1
    47    24    46    1
    48    25    47    1
    49    25    48    1
    50    25    49    1
    51    26    27   ar
    52    26    50    1
    53    27    51    1
    54    28    29    1
@<TRIPOS>SUBSTRUCTURE
     1 ZINC000434204837        1 TEMP              0 ****  ****    0 ROOT


##########                                Name:    ZINC001400108193
##########                DOCK_Rotatable_Bonds:                   9
##########                         Heavy_Atoms:                  25
##########                    Molecular_Weight:              344.41
##########                DOCK_Rotatable_Bonds:                   9
##########                       Formal_Charge:           0.0200001
##########                     HBond_Acceptors:                   6
##########                        HBond_Donors:                   2
##########                         Heavy_Atoms:                  25
##########                          Grid_Score:          -32.566299
##########                     Grid_vdw_energy:          -32.831635
##########                      Grid_es_energy:            0.265335
##########           Internal_energy_repulsive:            7.955692

@<TRIPOS>MOLECULE
ZINC001400108193
 49 50 1 0 0
SMALL
USER_CHARGES


@<TRIPOS>ATOM
      1 C1        -10.5145   -0.5903   52.5262 C.3     1  ZINC001400108193   -0.0800
      2 C2         -9.2204    0.1811   52.5624 C.2     1  ZINC001400108193   -0.0100
      3 C3         -9.0059    1.3085   53.2578 C.2     1  ZINC001400108193   -0.1600
      4 C4         -7.6122    1.6909   52.9876 C.2     1  ZINC001400108193   -0.2300
      5 C5         -6.8907    2.8612   53.5183 C.2     1  ZINC001400108193    0.5900
      6 O6         -7.4579    3.6403   54.2602 O.2     1  ZINC001400108193   -0.5300
      7 N7         -5.6021    3.0681   53.1815 N.am    1  ZINC001400108193   -0.7300
      8 C8         -4.8854    4.2325   53.7076 C.3     1  ZINC001400108193    0.1100
      9 C9         -3.3802    3.9597   53.6810 C.3     1  ZINC001400108193    0.1300
     10 H10        -2.8419    4.8644   53.9634 H       1  ZINC001400108193    0.1000
     11 C11        -3.0474    2.8390   54.6681 C.3     1  ZINC001400108193   -0.1600
     12 N12        -2.9810    3.5554   52.3306 N.am    1  ZINC001400108193   -0.7300
     13 C13        -1.7254    3.7899   51.9005 C.2     1  ZINC001400108193    0.5200
     14 O14        -0.9256    4.3343   52.6319 O.2     1  ZINC001400108193   -0.5100
     15 C15        -1.3153    3.3757   50.5108 C.3     1  ZINC001400108193    0.0700
     16 H16        -1.4903    4.2001   49.8194 H       1  ZINC001400108193    0.1000
     17 C17         0.1708    3.0119   50.5048 C.3     1  ZINC001400108193   -0.1800
     18 O18        -2.0848    2.2422   50.1049 O.3     1  ZINC001400108193   -0.2800
     19 C19        -1.9040    1.7968   48.8337 C.ar    1  ZINC001400108193    0.1200
     20 C20        -2.2248    2.6136   47.7591 C.ar    1  ZINC001400108193   -0.2100
     21 C21        -2.0396    2.1586   46.4680 C.ar    1  ZINC001400108193   -0.0800
     22 C22        -1.5400    0.8887   46.2461 C.ar    1  ZINC001400108193   -0.1200
     23 C23        -1.3449    0.3927   44.8365 C.3     1  ZINC001400108193   -0.1100
     24 C24        -1.2146    0.0747   47.3154 C.ar    1  ZINC001400108193   -0.0800
     25 C25        -1.3979    0.5249   48.6085 C.ar    1  ZINC001400108193   -0.1400
     26 C26        -7.1284    0.7393   52.1383 C.2     1  ZINC001400108193    0.0200
     27 O27        -8.0985   -0.1498   51.9044 O.3     1  ZINC001400108193   -0.1700
     28 H28       -11.1356   -0.2198   51.7107 H       1  ZINC001400108193    0.0900
     29 H29       -10.3027   -1.6481   52.3700 H       1  ZINC001400108193    0.0800
     30 H30       -11.0412   -0.4610   53.4718 H       1  ZINC001400108193    0.0900
     31 H31        -9.7125    1.8285   53.8875 H       1  ZINC001400108193    0.1600
     32 H32        -5.1494    2.4461   52.5907 H       1  ZINC001400108193    0.4000
     33 H33        -5.2024    4.4213   54.7333 H       1  ZINC001400108193    0.0800
     34 H34        -5.1076    5.1044   53.0924 H       1  ZINC001400108193    0.0900
     35 H35        -1.9751    2.6447   54.6492 H       1  ZINC001400108193    0.0700
     36 H36        -3.3444    3.1399   55.6728 H       1  ZINC001400108193    0.0700
     37 H37        -3.5857    1.9343   54.3857 H       1  ZINC001400108193    0.0600
     38 H38        -3.6203    3.1190   51.7461 H       1  ZINC001400108193    0.4000
     39 H39         0.7579    3.8765   50.8144 H       1  ZINC001400108193    0.0800
     40 H40         0.3458    2.1875   51.1961 H       1  ZINC001400108193    0.0800
     41 H41         0.4675    2.7123   49.4996 H       1  ZINC001400108193    0.0800
     42 H42        -2.6193    3.6039   47.9320 H       1  ZINC001400108193    0.1300
     43 H43        -2.2895    2.7939   45.6311 H       1  ZINC001400108193    0.1300
     44 H44        -0.3415    0.6493   44.4967 H       1  ZINC001400108193    0.0700
     45 H45        -1.4713   -0.6896   44.8114 H       1  ZINC001400108193    0.0700
     46 H46        -2.0807    0.8598   44.1819 H       1  ZINC001400108193    0.0700
     47 H47        -0.8207   -0.9154   47.1396 H       1  ZINC001400108193    0.1300
     48 H48        -1.1471   -0.1127   49.4434 H       1  ZINC001400108193    0.1300
     49 H49        -6.1302    0.7081   51.7270 H       1  ZINC001400108193    0.2100
@<TRIPOS>BOND
     1     1     2    1
     2     1    28    1
     3     1    29    1
     4     1    30    1
     5     2    27    1
     6     2     3    2
     7     3     4    1
     8     3    31    1
     9     4     5    1
    10     4    26    2
    11     5     6    2
    12     5     7   am
    13     7     8    1
    14     7    32    1
    15     8     9    1
    16     8    33    1
    17     8    34    1
    18     9    10    1
    19     9    11    1
    20     9    12    1
    21    11    35    1
    22    11    36    1
    23    11    37    1
    24    12    13   am
    25    12    38    1
    26    13    14    2
    27    13    15    1
    28    15    16    1
    29    15    17    1
    30    15    18    1
    31    17    39    1
    32    17    40    1
    33    17    41    1
    34    18    19    1
    35    19    25   ar
    36    19    20   ar
    37    20    21   ar
    38    20    42    1
    39    21    22   ar
    40    21    43    1
    41    22    23    1
    42    22    24   ar
    43    23    44    1
    44    23    45    1
    45    23    46    1
    46    24    25   ar
    47    24    47    1
    48    25    48    1
    49    26    27    1
    50    26    49    1
@<TRIPOS>SUBSTRUCTURE
     1 ZINC001400108193        1 TEMP              0 ****  ****    0 ROOT


##########                                Name:    ZINC000004598904
##########                DOCK_Rotatable_Bonds:                  13
##########                         Heavy_Atoms:                  30
##########                    Molecular_Weight:             412.442
##########                DOCK_Rotatable_Bonds:                  13
##########                       Formal_Charge:          -0.0300005
##########                     HBond_Acceptors:                   8
##########                        HBond_Donors:                   2
##########                         Heavy_Atoms:                  30
##########                          Grid_Score:          -32.548908
##########                     Grid_vdw_energy:          -31.749016
##########                      Grid_es_energy:           -0.799893
##########           Internal_energy_repulsive:            9.373662

@<TRIPOS>MOLECULE
ZINC000004598904
 54 55 1 0 0
SMALL
USER_CHARGES


@<TRIPOS>ATOM
      1 C1         -9.1652    0.3531   59.5747 C.3     1  ZINC000004598904   -0.1500
      2 C2         -8.6820    1.8033   59.5079 C.3     1  ZINC000004598904    0.0600
      3 O3         -7.4972    1.8806   58.6722 O.3     1  ZINC000004598904   -0.3500
      4 C4         -6.8861    3.0785   58.5866 C.2     1  ZINC000004598904    0.5100
      5 O5         -7.3577    4.0432   59.1553 O.2     1  ZINC000004598904   -0.5100
      6 C6         -5.6450    3.2187   57.8026 C.ar    1  ZINC000004598904   -0.1500
      7 C7         -4.9636    4.4394   57.7815 C.ar    1  ZINC000004598904   -0.0400
      8 C8         -3.8056    4.5666   57.0485 C.ar    1  ZINC000004598904   -0.1400
      9 C9         -3.3128    3.4822   56.3291 C.ar    1  ZINC000004598904    0.1800
     10 N10        -2.1393    3.6147   55.5882 N.am    1  ZINC000004598904   -0.6700
     11 C11        -2.1640    3.4470   54.2511 C.2     1  ZINC000004598904    0.5200
     12 O12        -3.2071    3.1810   53.6925 O.2     1  ZINC000004598904   -0.5100
     13 C13        -0.8955    3.5901   53.4502 C.3     1  ZINC000004598904   -0.1300
     14 C14        -1.1544    4.4921   52.2418 C.3     1  ZINC000004598904   -0.1300
     15 C15        -0.8951    3.7200   50.9739 C.2     1  ZINC000004598904    0.5200
     16 O16         0.2403    3.4278   50.6633 O.2     1  ZINC000004598904   -0.5100
     17 N17        -1.9248    3.3542   50.1851 N.am    1  ZINC000004598904   -0.6700
     18 C18        -1.6849    2.6399   49.0121 C.ar    1  ZINC000004598904    0.1800
     19 C19        -1.7924    1.2525   49.0099 C.ar    1  ZINC000004598904   -0.1400
     20 C20        -1.5563    0.5441   47.8537 C.ar    1  ZINC000004598904   -0.0300
     21 C21        -1.2085    1.2201   46.6804 C.ar    1  ZINC000004598904   -0.1500
     22 C22        -0.9551    0.4646   45.4396 C.2     1  ZINC000004598904    0.5100
     23 O23        -1.6473   -0.4939   45.1599 O.2     1  ZINC000004598904   -0.5100
     24 O24         0.0441    0.8374   44.6159 O.3     1  ZINC000004598904   -0.3600
     25 C25         0.0454    0.2666   43.2808 C.3     1  ZINC000004598904    0.0600
     26 C26         1.3791    0.5731   42.5965 C.3     1  ZINC000004598904   -0.1500
     27 C27        -1.1018    2.6141   46.6861 C.ar    1  ZINC000004598904   -0.0400
     28 C28        -1.3441    3.3164   47.8448 C.ar    1  ZINC000004598904   -0.1600
     29 C29        -3.9883    2.2659   56.3477 C.ar    1  ZINC000004598904   -0.1600
     30 C30        -5.1439    2.1297   57.0831 C.ar    1  ZINC000004598904   -0.0300
     31 H31        -8.3797   -0.2724   59.9990 H       1  ZINC000004598904    0.0700
     32 H32       -10.0546    0.2950   60.2022 H       1  ZINC000004598904    0.0800
     33 H33        -9.4053    0.0036   58.5707 H       1  ZINC000004598904    0.0700
     34 H34        -9.4674    2.4288   59.0836 H       1  ZINC000004598904    0.0700
     35 H35        -8.4418    2.1528   60.5121 H       1  ZINC000004598904    0.0700
     36 H36        -5.3457    5.2815   58.3394 H       1  ZINC000004598904    0.1400
     37 H37        -3.2789    5.5093   57.0314 H       1  ZINC000004598904    0.1400
     38 H38        -1.3050    3.8274   56.0350 H       1  ZINC000004598904    0.4200
     39 H39        -0.1196    4.0331   54.0746 H       1  ZINC000004598904    0.1100
     40 H40        -0.5694    2.6081   53.1074 H       1  ZINC000004598904    0.1100
     41 H41        -2.1906    4.8299   52.2560 H       1  ZINC000004598904    0.1100
     42 H42        -0.4902    5.3553   52.2837 H       1  ZINC000004598904    0.1100
     43 H43        -2.8329    3.5879   50.4335 H       1  ZINC000004598904    0.4200
     44 H44        -2.0611    0.7310   49.9167 H       1  ZINC000004598904    0.1400
     45 H45        -1.6391   -0.5327   47.8529 H       1  ZINC000004598904    0.1400
     46 H46        -0.0893   -0.8130   43.3471 H       1  ZINC000004598904    0.0700
     47 H47        -0.7689    0.6994   42.6999 H       1  ZINC000004598904    0.0700
     48 H48         1.3801    0.1446   41.5943 H       1  ZINC000004598904    0.0800
     49 H49         1.5138    1.6527   42.5303 H       1  ZINC000004598904    0.0700
     50 H50         2.1935    0.1403   43.1775 H       1  ZINC000004598904    0.0700
     51 H51        -0.8330    3.1396   45.7817 H       1  ZINC000004598904    0.1400
     52 H52        -1.2623    4.3934   47.8501 H       1  ZINC000004598904    0.1400
     53 H53        -3.6030    1.4264   55.7882 H       1  ZINC000004598904    0.1400
     54 H54        -5.6677    1.1854   57.0972 H       1  ZINC000004598904    0.1400
@<TRIPOS>BOND
     1     1     2    1
     2     1    31    1
     3     1    32    1
     4     1    33    1
     5     2     3    1
     6     2    34    1
     7     2    35    1
     8     3     4    1
     9     4     5    2
    10     4     6    1
    11     6    30   ar
    12     6     7   ar
    13     7     8   ar
    14     7    36    1
    15     8     9   ar
    16     8    37    1
    17     9    10    1
    18     9    29   ar
    19    10    11   am
    20    10    38    1
    21    11    12    2
    22    11    13    1
    23    13    14    1
    24    13    39    1
    25    13    40    1
    26    14    15    1
    27    14    41    1
    28    14    42    1
    29    15    16    2
    30    15    17   am
    31    17    18    1
    32    17    43    1
    33    18    28   ar
    34    18    19   ar
    35    19    20   ar
    36    19    44    1
    37    20    21   ar
    38    20    45    1
    39    21    22    1
    40    21    27   ar
    41    22    23    2
    42    22    24    1
    43    24    25    1
    44    25    26    1
    45    25    46    1
    46    25    47    1
    47    26    48    1
    48    26    49    1
    49    26    50    1
    50    27    28   ar
    51    27    51    1
    52    28    52    1
    53    29    30   ar
    54    29    53    1
    55    30    54    1
@<TRIPOS>SUBSTRUCTURE
     1 ZINC000004598904        1 TEMP              0 ****  ****    0 ROOT


##########                                Name:    ZINC000193795672
##########                DOCK_Rotatable_Bonds:                  10
##########                         Heavy_Atoms:                  23
##########                    Molecular_Weight:              332.47
##########                DOCK_Rotatable_Bonds:                  10
##########                       Formal_Charge:        -2.98023e-07
##########                     HBond_Acceptors:                   6
##########                        HBond_Donors:                   3
##########                         Heavy_Atoms:                  23
##########                          Grid_Score:          -32.544807
##########                     Grid_vdw_energy:          -32.286610
##########                      Grid_es_energy:           -0.258196
##########           Internal_energy_repulsive:            9.193479

@<TRIPOS>MOLECULE
ZINC000193795672
 47 48 1 0 0
SMALL
USER_CHARGES


@<TRIPOS>ATOM
      1 C1         -0.6551    0.1390   44.4335 C.3     1  <0>        -0.1000
      2 C2         -1.1187    0.8440   45.6822 C.ar    1  <0>        -0.2000
      3 C3         -1.0716    0.1984   46.9104 C.ar    1  <0>        -0.0300
      4 C4         -1.5062    0.8813   48.0323 C.ar    1  <0>        -0.2400
      5 C5         -1.9730    2.1841   47.8926 C.ar    1  <0>         0.4000
      6 N6         -2.4127    2.8819   49.0116 N.pl3   1  <0>        -0.7300
      7 C7         -1.4619    3.6581   49.8113 C.3     1  <0>         0.1300
      8 C8         -2.0731    5.0188   50.1515 C.3     1  <0>        -0.1400
      9 C9         -3.3405    4.8148   50.9839 C.3     1  <0>         0.1400
     10 N10        -2.9714    4.4621   52.3571 N.am    1  <0>        -0.7500
     11 C11        -3.8038    3.7135   53.1075 C.2     1  <0>         0.7100
     12 O12        -4.8604    3.3295   52.6443 O.2     1  <0>        -0.5900
     13 N13        -3.4650    3.3904   54.3713 N.am    1  <0>        -0.7400
     14 C14        -4.3706    2.5782   55.1876 C.3     1  <0>         0.1700
     15 H15        -4.9269    1.8966   54.5442 H       1  <0>         0.0900
     16 C16        -3.5577    1.7721   56.2027 C.3     1  <0>        -0.1700
     17 C17        -5.3484    3.4928   55.9282 C.3     1  <0>        -0.0600
     18 C18        -6.3180    2.6546   56.7209 C.2     1  <0>        -0.1700
     19 C19        -7.4662    2.1603   56.2556 C.2     1  <0>        -0.1400
     20 C20        -8.1941    1.4174   57.1690 C.2     1  <0>        -0.1300
     21 C21        -7.6370    1.3082   58.3760 C.2     1  <0>        -0.2100
     22 S22        -6.1049    2.1719   58.3987 S.3     1  <0>         0.0900
     23 N23        -2.0018    2.7657   46.7033 N.ar    1  <0>        -0.5400
     24 C24        -1.5892    2.1403   45.6172 C.ar    1  <0>         0.1500
     25 H25         0.4092    0.3225   44.2865 H       1  <0>         0.0700
     26 H26        -0.8284   -0.9323   44.5355 H       1  <0>         0.0600
     27 H27        -1.2108    0.5169   43.5753 H       1  <0>         0.0700
     28 H28        -0.7043   -0.8143   46.9883 H       1  <0>         0.1300
     29 H29        -1.4837    0.4090   49.0034 H       1  <0>         0.1300
     30 H30        -3.3493    2.8549   49.2628 H       1  <0>         0.4000
     31 H31        -1.2376    3.1200   50.7323 H       1  <0>         0.0700
     32 H32        -0.5434    3.8042   49.2429 H       1  <0>         0.0700
     33 H33        -1.3546    5.6074   50.7220 H       1  <0>         0.0800
     34 H34        -2.3240    5.5449   49.2305 H       1  <0>         0.0800
     35 H35        -3.9236    5.7356   50.9895 H       1  <0>         0.0700
     36 H36        -3.9349    4.0109   50.5496 H       1  <0>         0.0700
     37 H37        -2.1279    4.7674   52.7262 H       1  <0>         0.4000
     38 H38        -2.6215    3.6958   54.7405 H       1  <0>         0.3900
     39 H39        -3.0013    2.4537   56.8461 H       1  <0>         0.0600
     40 H40        -4.2315    1.1678   56.8101 H       1  <0>         0.0700
     41 H41        -2.8612    1.1206   55.6752 H       1  <0>         0.0700
     42 H42        -4.7950    4.1450   56.6039 H       1  <0>         0.1000
     43 H43        -5.8969    4.0983   55.2068 H       1  <0>         0.0800
     44 H44        -7.8026    2.3275   55.2430 H       1  <0>         0.1400
     45 H45        -9.1415    0.9609   56.9230 H       1  <0>         0.1400
     46 H46        -8.0601    0.7690   59.2106 H       1  <0>         0.1600
     47 H47        -1.6274    2.6464   44.6639 H       1  <0>         0.1500
@<TRIPOS>BOND
     1     1     2    1
     2     1    25    1
     3     1    26    1
     4     1    27    1
     5     2    24   ar
     6     2     3   ar
     7     3     4   ar
     8     3    28    1
     9     4     5   ar
    10     4    29    1
    11     5     6    1
    12     5    23   ar
    13     6     7    1
    14     6    30    1
    15     7     8    1
    16     7    31    1
    17     7    32    1
    18     8     9    1
    19     8    33    1
    20     8    34    1
    21     9    10    1
    22     9    35    1
    23     9    36    1
    24    10    11   am
    25    10    37    1
    26    11    12    2
    27    11    13   am
    28    13    14    1
    29    13    38    1
    30    14    15    1
    31    14    16    1
    32    14    17    1
    33    16    39    1
    34    16    40    1
    35    16    41    1
    36    17    18    1
    37    17    42    1
    38    17    43    1
    39    18    22    1
    40    18    19    2
    41    19    20    1
    42    19    44    1
    43    20    21    2
    44    20    45    1
    45    21    22    1
    46    21    46    1
    47    23    24   ar
    48    24    47    1
@<TRIPOS>SUBSTRUCTURE
     1 <0>         1 TEMP              0 ****  ****    0 ROOT


##########                                Name:    ZINC000599797189
##########                DOCK_Rotatable_Bonds:                  13
##########                         Heavy_Atoms:                  23
##########                    Molecular_Weight:             329.313
##########                DOCK_Rotatable_Bonds:                  13
##########                       Formal_Charge:          0.00999949
##########                     HBond_Acceptors:                  11
##########                        HBond_Donors:                   3
##########                         Heavy_Atoms:                  23
##########                          Grid_Score:          -32.541481
##########                     Grid_vdw_energy:          -29.708742
##########                      Grid_es_energy:           -2.832740
##########           Internal_energy_repulsive:            6.410891

@<TRIPOS>MOLECULE
ZINC000599797189
 42 42 1 0 0
SMALL
USER_CHARGES


@<TRIPOS>ATOM
      1 C1          2.5341    2.7993   44.7048 C.3     1  ZINC000599797189   -0.1500
      2 C2          1.7305    1.6750   44.0480 C.3     1  ZINC000599797189    0.0600
      3 O3          0.4128    1.6044   44.6538 O.3     1  ZINC000599797189   -0.3600
      4 C4         -0.4167    0.6522   44.1989 C.2     1  ZINC000599797189    0.4500
      5 O5         -0.2105    0.1326   43.1278 O.2     1  ZINC000599797189   -0.4800
      6 C6         -1.6054    0.2314   45.0242 C.3     1  ZINC000599797189    0.1500
      7 N7         -1.6955    1.0768   46.2173 N.pl3   1  ZINC000599797189   -0.3800
      8 C8         -2.2290    2.3077   46.2924 C.2     1  ZINC000599797189    0.2800
      9 N9         -2.1186    2.7264   47.5274 N.2     1  ZINC000599797189   -0.5100
     10 C10        -1.5199    1.7907   48.2702 C.2     1  ZINC000599797189    0.4700
     11 N11        -1.2362    1.8937   49.6361 N.am    1  ZINC000599797189   -0.6400
     12 C12        -0.1262    2.5383   50.0472 C.2     1  ZINC000599797189    0.7100
     13 O13         0.6294    3.0289   49.2308 O.2     1  ZINC000599797189   -0.5300
     14 N14         0.1462    2.6388   51.3633 N.am    1  ZINC000599797189   -0.7300
     15 C15         1.3518    3.3410   51.8102 C.3     1  ZINC000599797189    0.1100
     16 C16         1.5281    3.1433   53.3171 C.3     1  ZINC000599797189    0.1100
     17 H17         1.2293    2.1307   53.5881 H       1  ZINC000599797189    0.1200
     18 O18         2.8990    3.3451   53.6667 O.3     1  ZINC000599797189   -0.5400
     19 C19         0.6564    4.1509   54.0692 C.3     1  ZINC000599797189   -0.1500
     20 C20        -0.6611    3.5104   54.4224 C.2     1  ZINC000599797189    0.4600
     21 O21        -1.6233    3.6756   53.7105 O.2     1  ZINC000599797189   -0.4900
     22 O22        -0.7657    2.7563   55.5278 O.3     1  ZINC000599797189   -0.3600
     23 C23        -2.0685    2.1819   55.8131 C.3     1  ZINC000599797189    0.0400
     24 N24        -1.2466    0.7579   47.5092 N.2     1  ZINC000599797189   -0.3200
     25 H25         3.5233    2.8523   44.2500 H       1  ZINC000599797189    0.0800
     26 H26         2.0167    3.7477   44.5608 H       1  ZINC000599797189    0.0700
     27 H27         2.6349    2.5986   45.7714 H       1  ZINC000599797189    0.0700
     28 H28         1.6297    1.8757   42.9814 H       1  ZINC000599797189    0.0700
     29 H29         2.2480    0.7266   44.1920 H       1  ZINC000599797189    0.0700
     30 H30        -2.5147    0.3394   44.4329 H       1  ZINC000599797189    0.1500
     31 H31        -1.4889   -0.8098   45.3246 H       1  ZINC000599797189    0.1300
     32 H32        -2.6722    2.8568   45.4749 H       1  ZINC000599797189    0.2300
     33 H33        -1.8384    1.5012   50.2874 H       1  ZINC000599797189    0.4200
     34 H34        -0.4560    2.2464   52.0146 H       1  ZINC000599797189    0.4000
     35 H35         2.2203    2.9407   51.2871 H       1  ZINC000599797189    0.0800
     36 H36         1.2547    4.4045   51.5922 H       1  ZINC000599797189    0.0800
     37 H37         3.5078    2.7216   53.2474 H       1  ZINC000599797189    0.3800
     38 H38         1.1653    4.4620   54.9815 H       1  ZINC000599797189    0.1200
     39 H39         0.4794    5.0212   53.4371 H       1  ZINC000599797189    0.1200
     40 H40        -2.7995    2.9814   55.9337 H       1  ZINC000599797189    0.0600
     41 H41        -2.3692    1.5358   54.9883 H       1  ZINC000599797189    0.0600
     42 H42        -2.0145    1.5973   56.7315 H       1  ZINC000599797189    0.1000
@<TRIPOS>BOND
     1     1     2    1
     2     1    25    1
     3     1    26    1
     4     1    27    1
     5     2     3    1
     6     2    28    1
     7     2    29    1
     8     3     4    1
     9     4     5    2
    10     4     6    1
    11     6     7    1
    12     6    30    1
    13     6    31    1
    14     7    24    1
    15     7     8    1
    16     8     9    2
    17     8    32    1
    18     9    10    1
    19    10    11    1
    20    10    24    2
    21    11    12   am
    22    11    33    1
    23    12    13    2
    24    12    14   am
    25    14    15    1
    26    14    34    1
    27    15    16    1
    28    15    35    1
    29    15    36    1
    30    16    17    1
    31    16    18    1
    32    16    19    1
    33    18    37    1
    34    19    20    1
    35    19    38    1
    36    19    39    1
    37    20    21    2
    38    20    22    1
    39    22    23    1
    40    23    40    1
    41    23    41    1
    42    23    42    1
@<TRIPOS>SUBSTRUCTURE
     1 ZINC000599797189        1 TEMP              0 ****  ****    0 ROOT


##########                                Name:    ZINC000188380122
##########                DOCK_Rotatable_Bonds:                   6
##########                         Heavy_Atoms:                  27
##########                    Molecular_Weight:             396.433
##########                DOCK_Rotatable_Bonds:                   6
##########                       Formal_Charge:           0.0299998
##########                     HBond_Acceptors:                   8
##########                        HBond_Donors:                   1
##########                         Heavy_Atoms:                  27
##########                          Grid_Score:          -32.513985
##########                     Grid_vdw_energy:          -33.059830
##########                      Grid_es_energy:            0.545846
##########           Internal_energy_repulsive:           10.400853

@<TRIPOS>MOLECULE
ZINC000188380122
 46 49 1 0 0
SMALL
USER_CHARGES


@<TRIPOS>ATOM
      1 O1         -2.7253    3.8034   50.6244 O.2     1  ZINC000188380122   -0.5200
      2 C2         -1.5458    3.6042   50.8249 C.2     1  ZINC000188380122    0.5200
      3 C3         -0.8969    4.1238   52.0819 C.3     1  ZINC000188380122   -0.0700
      4 C4         -1.5574    3.4986   53.2835 C.2     1  ZINC000188380122    0.0900
      5 C5         -0.8505    2.9509   54.2778 C.2     1  ZINC000188380122   -0.2400
      6 S6         -1.9799    2.3353   55.4828 S.3     1  ZINC000188380122    0.1000
      7 C7         -3.3288    2.8943   54.4969 C.2     1  ZINC000188380122    0.1100
      8 C8         -4.7600    2.7470   54.8381 C.ar    1  ZINC000188380122   -0.0200
      9 C9         -5.7249    2.7554   53.8302 C.ar    1  ZINC000188380122   -0.0400
     10 C10        -7.0588    2.6171   54.1552 C.ar    1  ZINC000188380122   -0.1200
     11 C11        -7.4402    2.4707   55.4769 C.ar    1  ZINC000188380122   -0.0600
     12 C12        -6.4881    2.4615   56.4810 C.ar    1  ZINC000188380122   -0.1800
     13 C13        -6.9127    2.3009   57.9180 C.3     1  ZINC000188380122    0.5100
     14 F14        -6.7647    3.5206   58.5871 F       1  ZINC000188380122   -0.1700
     15 F15        -8.2527    1.9019   57.9667 F       1  ZINC000188380122   -0.1700
     16 F16        -6.1146    1.3311   58.5344 F       1  ZINC000188380122   -0.1700
     17 C17        -5.1509    2.5932   56.1690 C.ar    1  ZINC000188380122   -0.0500
     18 N18        -2.8627    3.4629   53.4220 N.2     1  ZINC000188380122   -0.4300
     19 N19        -0.8167    2.9133   49.9263 N.am    1  ZINC000188380122   -0.7200
     20 C20        -1.4476    2.4082   48.7044 C.3     1  ZINC000188380122    0.1300
     21 H21        -2.0159    3.1721   48.1739 H       1  ZINC000188380122    0.1200
     22 C22        -2.2208    1.0930   48.9071 C.3     1  ZINC000188380122   -0.1800
     23 C23        -1.6678    0.6668   47.5421 C.3     1  ZINC000188380122    0.0900
     24 H24        -2.2960    1.0199   46.7242 H       1  ZINC000188380122    0.1200
     25 O25        -1.3724   -0.7009   47.4102 O.3     1  ZINC000188380122   -0.3700
     26 C26        -0.3022   -1.2575   48.1509 C.3     1  ZINC000188380122    0.0700
     27 C27         0.9517   -0.3926   48.0306 C.3     1  ZINC000188380122   -0.1600
     28 C28         0.6448    0.9957   48.6005 C.3     1  ZINC000188380122   -0.1100
     29 C29        -0.4888    1.6095   47.7980 C.3     1  ZINC000188380122   -0.1500
     30 H30        -0.1490    2.1530   46.9163 H       1  ZINC000188380122    0.0900
     31 H31         0.1628    3.8686   52.0760 H       1  ZINC000188380122    0.1100
     32 H32        -1.0095    5.2070   52.1279 H       1  ZINC000188380122    0.1100
     33 H33         0.2266    2.8950   54.3327 H       1  ZINC000188380122    0.1800
     34 H34        -5.4285    2.8704   52.7981 H       1  ZINC000188380122    0.1500
     35 H35        -7.8067    2.6234   53.3762 H       1  ZINC000188380122    0.1400
     36 H36        -8.4855    2.3634   55.7260 H       1  ZINC000188380122    0.1500
     37 H37        -4.4088    2.5858   56.9536 H       1  ZINC000188380122    0.1400
     38 H38         0.1257    2.7507   50.0885 H       1  ZINC000188380122    0.4000
     39 H39        -1.8512    0.4908   49.7371 H       1  ZINC000188380122    0.0900
     40 H40        -3.3034    1.2190   48.9215 H       1  ZINC000188380122    0.0800
     41 H41        -0.5902   -1.3270   49.1998 H       1  ZINC000188380122    0.0500
     42 H42        -0.0860   -2.2566   47.7726 H       1  ZINC000188380122    0.1000
     43 H43         1.7657   -0.8480   48.5947 H       1  ZINC000188380122    0.0800
     44 H44         1.2354   -0.3032   46.9819 H       1  ZINC000188380122    0.0800
     45 H45         0.3460    0.9041   49.6447 H       1  ZINC000188380122    0.0700
     46 H46         1.5312    1.6255   48.5259 H       1  ZINC000188380122    0.0800
@<TRIPOS>BOND
     1     1     2    2
     2     2     3    1
     3     2    19   am
     4     3     4    1
     5     3    31    1
     6     3    32    1
     7     4    18    1
     8     4     5    2
     9     5     6    1
    10     5    33    1
    11     6     7    1
    12     7     8    1
    13     7    18    2
    14     8    17   ar
    15     8     9   ar
    16     9    10   ar
    17     9    34    1
    18    10    11   ar
    19    10    35    1
    20    11    12   ar
    21    11    36    1
    22    12    13    1
    23    12    17   ar
    24    13    14    1
    25    13    15    1
    26    13    16    1
    27    17    37    1
    28    19    20    1
    29    19    38    1
    30    20    21    1
    31    20    29    1
    32    20    22    1
    33    22    23    1
    34    22    39    1
    35    22    40    1
    36    23    24    1
    37    23    29    1
    38    23    25    1
    39    25    26    1
    40    26    27    1
    41    26    41    1
    42    26    42    1
    43    27    28    1
    44    27    43    1
    45    27    44    1
    46    28    29    1
    47    28    45    1
    48    28    46    1
    49    29    30    1
@<TRIPOS>SUBSTRUCTURE
     1 ZINC000188380122        1 TEMP              0 ****  ****    0 ROOT


##########                                Name:    ZINC001109404798
##########                DOCK_Rotatable_Bonds:                   7
##########                         Heavy_Atoms:                  25
##########                    Molecular_Weight:              360.48
##########                DOCK_Rotatable_Bonds:                   7
##########                       Formal_Charge:           0.0100002
##########                     HBond_Acceptors:                   7
##########                        HBond_Donors:                   1
##########                         Heavy_Atoms:                  25
##########                          Grid_Score:          -32.506134
##########                     Grid_vdw_energy:          -31.731712
##########                      Grid_es_energy:           -0.774421
##########           Internal_energy_repulsive:           26.151932

@<TRIPOS>MOLECULE
ZINC001109404798
 49 52 1 0 0
SMALL
USER_CHARGES


@<TRIPOS>ATOM
      1 C1          3.7066    2.0662   42.6004 C.3     1  ZINC001109404798   -0.0600
      2 C2          2.9584    1.5721   43.8117 C.2     1  ZINC001109404798    0.1700
      3 N3          3.4853    1.0902   44.8974 N.2     1  ZINC001109404798   -0.3900
      4 O4          2.6159    0.7822   45.6852 O.3     1  ZINC001109404798    0.1000
      5 C5          1.4154    1.0464   45.1610 C.2     1  ZINC001109404798    0.1900
      6 C6          0.0786    0.8108   45.8156 C.3     1  ZINC001109404798    0.1600
      7 H7          0.1522   -0.0360   46.4978 H       1  ZINC001109404798    0.1000
      8 C8         -0.9693    0.5109   44.7417 C.3     1  ZINC001109404798   -0.1500
      9 N9         -0.3179    2.0105   46.5649 N.3     1  ZINC001109404798   -0.4800
     10 C10         0.6010    2.2439   47.7357 C.3     1  ZINC001109404798    0.0400
     11 H11         1.6430    2.4481   47.4893 H       1  ZINC001109404798    0.1100
     12 C12         0.3479    0.9553   48.5749 C.3     1  ZINC001109404798   -0.1600
     13 C13        -1.1419    0.6330   48.3028 C.3     1  ZINC001109404798   -0.1600
     14 C14        -1.5899    1.7700   47.3355 C.3     1  ZINC001109404798    0.0400
     15 H15        -2.4757    1.5570   46.7370 H       1  ZINC001109404798    0.1200
     16 C16        -1.6691    3.0482   48.2235 C.3     1  ZINC001109404798    0.1500
     17 H17        -2.1472    3.8635   47.6806 H       1  ZINC001109404798    0.1000
     18 N18        -2.3886    2.7677   49.4684 N.am    1  ZINC001109404798   -0.7200
     19 C19        -2.8764    3.7831   50.2083 C.2     1  ZINC001109404798    0.5100
     20 O20        -2.7210    4.9291   49.8427 O.2     1  ZINC001109404798   -0.5300
     21 C21        -3.6150    3.4947   51.4898 C.3     1  ZINC001109404798   -0.1300
     22 C22        -2.6677    3.6790   52.6771 C.3     1  ZINC001109404798   -0.0400
     23 C23        -3.3268    3.1634   53.9304 C.2     1  ZINC001109404798   -0.1000
     24 C24        -2.6570    2.4940   54.8698 C.2     1  ZINC001109404798   -0.2100
     25 S25        -3.7513    2.0561   56.1753 S.3     1  ZINC001109404798    0.1000
     26 C26        -5.0965    2.8297   55.3474 C.2     1  ZINC001109404798   -0.2100
     27 C27        -4.6717    3.3538   54.1967 C.2     1  ZINC001109404798   -0.1300
     28 C28        -0.1507    3.3876   48.4812 C.3     1  ZINC001109404798   -0.1100
     29 N29         1.6229    1.5544   43.9699 N.2     1  ZINC001109404798   -0.4800
     30 H30         3.9227    3.1284   42.7151 H       1  ZINC001109404798    0.0900
     31 H31         4.6411    1.5141   42.5003 H       1  ZINC001109404798    0.0900
     32 H32         3.0971    1.9135   41.7098 H       1  ZINC001109404798    0.0900
     33 H33        -0.6751   -0.3793   44.1856 H       1  ZINC001109404798    0.0700
     34 H34        -1.9362    0.3405   45.2152 H       1  ZINC001109404798    0.0800
     35 H35        -1.0430    1.3577   44.0593 H       1  ZINC001109404798    0.0800
     36 H36         0.9857    0.1414   48.2302 H       1  ZINC001109404798    0.0700
     37 H37         0.5110    1.1495   49.6349 H       1  ZINC001109404798    0.0800
     38 H38        -1.2425   -0.3406   47.8231 H       1  ZINC001109404798    0.0700
     39 H39        -1.7172    0.6674   49.2279 H       1  ZINC001109404798    0.0800
     40 H40        -2.5139    1.8512   49.7602 H       1  ZINC001109404798    0.4000
     41 H41        -4.4566    4.1806   51.5864 H       1  ZINC001109404798    0.0900
     42 H42        -3.9826    2.4686   51.4742 H       1  ZINC001109404798    0.1000
     43 H43        -1.7467    3.1247   52.4964 H       1  ZINC001109404798    0.0800
     44 H44        -2.4372    4.7376   52.7969 H       1  ZINC001109404798    0.0800
     45 H45        -1.6040    2.2568   54.8341 H       1  ZINC001109404798    0.1600
     46 H46        -6.1103    2.8773   55.7166 H       1  ZINC001109404798    0.1600
     47 H47        -5.3291    3.8798   53.5203 H       1  ZINC001109404798    0.1400
     48 H48         0.0768    3.3441   49.5464 H       1  ZINC001109404798    0.0800
     49 H49         0.0979    4.3678   48.0744 H       1  ZINC001109404798    0.0900
@<TRIPOS>BOND
     1     1     2    1
     2     1    30    1
     3     1    31    1
     4     1    32    1
     5     2    29    1
     6     2     3    2
     7     3     4    1
     8     4     5    1
     9     5     6    1
    10     5    29    2
    11     6     7    1
    12     6     8    1
    13     6     9    1
    14     8    33    1
    15     8    34    1
    16     8    35    1
    17     9    14    1
    18     9    10    1
    19    10    11    1
    20    10    28    1
    21    10    12    1
    22    12    13    1
    23    12    36    1
    24    12    37    1
    25    13    14    1
    26    13    38    1
    27    13    39    1
    28    14    15    1
    29    14    16    1
    30    16    17    1
    31    16    18    1
    32    16    28    1
    33    18    19   am
    34    18    40    1
    35    19    20    2
    36    19    21    1
    37    21    22    1
    38    21    41    1
    39    21    42    1
    40    22    23    1
    41    22    43    1
    42    22    44    1
    43    23    27    1
    44    23    24    2
    45    24    25    1
    46    24    45    1
    47    25    26    1
    48    26    27    2
    49    26    46    1
    50    27    47    1
    51    28    48    1
    52    28    49    1
@<TRIPOS>SUBSTRUCTURE
     1 ZINC001109404798        1 TEMP              0 ****  ****    0 ROOT


##########                                Name:    ZINC001326371752
##########                DOCK_Rotatable_Bonds:                   5
##########                         Heavy_Atoms:                  25
##########                    Molecular_Weight:             360.397
##########                DOCK_Rotatable_Bonds:                   5
##########                       Formal_Charge:           0.0199999
##########                     HBond_Acceptors:                  10
##########                        HBond_Donors:                   0
##########                         Heavy_Atoms:                  25
##########                          Grid_Score:          -32.496250
##########                     Grid_vdw_energy:          -30.236849
##########                      Grid_es_energy:           -2.259401
##########           Internal_energy_repulsive:            9.713188

@<TRIPOS>MOLECULE
ZINC001326371752
 41 44 1 0 0
SMALL
USER_CHARGES


@<TRIPOS>ATOM
      1 C1         -0.0425   -0.0719   42.4145 C.3     1  ZINC001326371752    0.0300
      2 O2         -0.8998    0.5243   43.3901 O.3     1  ZINC001326371752   -0.3800
      3 C3         -0.7116    0.0213   44.7143 C.3     1  ZINC001326371752    0.0500
      4 C4         -1.6772    0.7257   45.6695 C.3     1  ZINC001326371752    0.1200
      5 N5         -1.1112    2.0153   46.0728 N.pl3   1  ZINC001326371752   -0.2800
      6 N6         -0.6261    2.9118   45.2807 N.2     1  ZINC001326371752   -0.0800
      7 N7         -0.2084    3.9276   45.9578 N.2     1  ZINC001326371752   -0.2500
      8 C8         -0.4247    3.6947   47.2473 C.2     1  ZINC001326371752   -0.0400
      9 C9         -1.0112    2.4751   47.3329 C.2     1  ZINC001326371752    0.0000
     10 C10        -1.4391    1.8185   48.6176 C.3     1  ZINC001326371752   -0.0600
     11 C11        -0.7230    2.5080   49.7865 C.3     1  ZINC001326371752    0.1200
     12 N12        -0.7910    3.9653   49.6041 N.am    1  ZINC001326371752   -0.6100
     13 C13        -1.4617    4.7396   50.4798 C.2     1  ZINC001326371752    0.6100
     14 O14        -1.5087    5.9445   50.3149 O.2     1  ZINC001326371752   -0.5100
     15 C15        -2.1353    4.1301   51.6322 C.2     1  ZINC001326371752   -0.3400
     16 C16        -3.5241    3.9561   51.6360 C.2     1  ZINC001326371752    0.2400
     17 N17        -4.0963    3.4044   52.6892 N.2     1  ZINC001326371752   -0.5100
     18 C18        -3.3935    3.0106   53.7431 C.2     1  ZINC001326371752    0.2900
     19 S19        -3.8995    2.2753   55.2161 S.3     1  ZINC001326371752    0.2500
     20 C20        -2.2686    2.1670   55.8969 C.2     1  ZINC001326371752   -0.2100
     21 C21        -1.4694    2.6849   54.9795 C.2     1  ZINC001326371752    0.0500
     22 N22        -2.0433    3.1436   53.8184 N.am    1  ZINC001326371752   -0.4600
     23 C23        -1.3938    3.7029   52.7553 C.2     1  ZINC001326371752    0.5500
     24 O24        -0.1826    3.8366   52.7777 O.2     1  ZINC001326371752   -0.5000
     25 C25        -0.1118    4.5622   48.4400 C.3     1  ZINC001326371752    0.2000
     26 H26        -0.2472    0.3634   41.4365 H       1  ZINC001326371752    0.0900
     27 H27         0.9976    0.1123   42.6838 H       1  ZINC001326371752    0.0500
     28 H28        -0.2239   -1.1460   42.3793 H       1  ZINC001326371752    0.0500
     29 H29        -0.9061   -1.0512   44.7266 H       1  ZINC001326371752    0.0600
     30 H30         0.3143    0.2082   45.0316 H       1  ZINC001326371752    0.0600
     31 H31        -2.6308    0.8885   45.1674 H       1  ZINC001326371752    0.1200
     32 H32        -1.8324    0.1052   46.5520 H       1  ZINC001326371752    0.1200
     33 H33        -2.5176    1.9202   48.7386 H       1  ZINC001326371752    0.0900
     34 H34        -1.1698    0.7625   48.5958 H       1  ZINC001326371752    0.1000
     35 H35        -1.2091    2.2352   50.7232 H       1  ZINC001326371752    0.1100
     36 H36         0.3201    2.1924   49.8115 H       1  ZINC001326371752    0.0800
     37 H37        -4.1183    4.2690   50.7901 H       1  ZINC001326371752    0.1900
     38 H38        -1.9863    1.7638   56.8582 H       1  ZINC001326371752    0.2200
     39 H39        -0.4028    2.7452   55.1373 H       1  ZINC001326371752    0.2000
     40 H40         0.9652    4.5799   48.6073 H       1  ZINC001326371752    0.1000
     41 H41        -0.4794    5.5749   48.2747 H       1  ZINC001326371752    0.1000
@<TRIPOS>BOND
     1     1     2    1
     2     1    26    1
     3     1    27    1
     4     1    28    1
     5     2     3    1
     6     3     4    1
     7     3    29    1
     8     3    30    1
     9     4     5    1
    10     4    31    1
    11     4    32    1
    12     5     9    1
    13     5     6    1
    14     6     7    2
    15     7     8    1
    16     8    25    1
    17     8     9    2
    18     9    10    1
    19    10    11    1
    20    10    33    1
    21    10    34    1
    22    11    12    1
    23    11    35    1
    24    11    36    1
    25    12    13   am
    26    12    25    1
    27    13    14    2
    28    13    15    1
    29    15    23    1
    30    15    16    2
    31    16    17    1
    32    16    37    1
    33    17    18    2
    34    18    22    1
    35    18    19    1
    36    19    20    1
    37    20    21    2
    38    20    38    1
    39    21    22    1
    40    21    39    1
    41    22    23   am
    42    23    24    2
    43    25    40    1
    44    25    41    1
@<TRIPOS>SUBSTRUCTURE
     1 ZINC001326371752        1 TEMP              0 ****  ****    0 ROOT


##########                                Name:    ZINC000279452407
##########                DOCK_Rotatable_Bonds:                   6
##########                         Heavy_Atoms:                  24
##########                    Molecular_Weight:              375.47
##########                DOCK_Rotatable_Bonds:                   6
##########                       Formal_Charge:          0.00999929
##########                     HBond_Acceptors:                  10
##########                        HBond_Donors:                   3
##########                         Heavy_Atoms:                  24
##########                          Grid_Score:          -32.472492
##########                     Grid_vdw_energy:          -29.769346
##########                      Grid_es_energy:           -2.703146
##########           Internal_energy_repulsive:           26.250744

@<TRIPOS>MOLECULE
ZINC000279452407
 45 47 1 0 0
SMALL
USER_CHARGES


@<TRIPOS>ATOM
      1 C1          0.8784    2.2995   46.9577 C.3     1  ZINC000279452407   -0.1600
      2 C2          0.4378    1.0562   46.1825 C.3     1  ZINC000279452407    0.0600
      3 H3          0.8655    0.1635   46.6388 H       1  ZINC000279452407    0.0700
      4 O4          0.8632    1.1573   44.8115 O.3     1  ZINC000279452407   -0.3700
      5 C5         -0.1536    0.5222   44.0061 C.3     1  ZINC000279452407    0.0500
      6 C6         -1.4792    0.9633   44.6799 C.3     1  ZINC000279452407   -0.1400
      7 C7         -1.0947    0.9582   46.1783 C.3     1  ZINC000279452407    0.0700
      8 C8         -1.7060    2.1702   46.8768 C.3     1  ZINC000279452407    0.1100
      9 N9         -1.4727    2.0403   48.3251 N.am    1  ZINC000279452407   -0.6300
     10 C10        -0.9586    3.0603   49.0405 C.2     1  ZINC000279452407    0.7200
     11 O11        -0.6794    4.1083   48.4910 O.2     1  ZINC000279452407   -0.5800
     12 N12        -0.7540    2.9186   50.3651 N.am    1  ZINC000279452407   -0.7500
     13 C13        -0.1952    4.0272   51.1426 C.3     1  ZINC000279452407    0.2000
     14 C14         0.3101    3.5091   52.4646 C.2     1  ZINC000279452407   -0.1700
     15 C15        -0.4335    3.3394   53.5589 C.2     1  ZINC000279452407   -0.1400
     16 C16         0.2500    2.8493   54.6583 C.2     1  ZINC000279452407    0.0100
     17 C17         1.5487    2.6210   54.4567 C.2     1  ZINC000279452407   -0.7900
     18 S18         2.6701    1.9986   55.6651 S.o2    1  ZINC000279452407    2.7300
     19 N19         2.6692    0.3481   55.5305 N.am    1  ZINC000279452407   -1.2500
     20 O20         3.9649    2.4326   55.2720 O.2     1  ZINC000279452407   -0.9600
     21 O21         2.1014    2.2983   56.9323 O.2     1  ZINC000279452407   -0.9500
     22 S22         1.9687    3.0286   52.7982 S.3     1  ZINC000279452407    0.2500
     23 C23        -1.8189    0.7620   48.9668 C.3     1  ZINC000279452407    0.0700
     24 C24        -1.1661   -0.3737   48.1706 C.3     1  ZINC000279452407    0.0400
     25 O25        -1.5268   -0.2501   46.7917 O.3     1  ZINC000279452407   -0.3600
     26 H26         0.6331    2.1757   48.0125 H       1  ZINC000279452407    0.0700
     27 H27         1.9545    2.4336   46.8483 H       1  ZINC000279452407    0.0600
     28 H28         0.3613    3.1748   46.5647 H       1  ZINC000279452407    0.0800
     29 H29        -0.1081    0.8810   42.9778 H       1  ZINC000279452407    0.1000
     30 H30        -0.0483   -0.5621   44.0402 H       1  ZINC000279452407    0.0700
     31 H31        -1.7682    1.9625   44.3538 H       1  ZINC000279452407    0.1000
     32 H32        -2.2747    0.2452   44.4812 H       1  ZINC000279452407    0.1000
     33 H33        -1.2335    3.0814   46.5100 H       1  ZINC000279452407    0.1200
     34 H34        -2.7775    2.2047   46.6800 H       1  ZINC000279452407    0.0800
     35 H35        -0.9767    2.0824   50.8035 H       1  ZINC000279452407    0.4000
     36 H36         0.6288    4.4793   50.5907 H       1  ZINC000279452407    0.1000
     37 H37        -0.9689    4.7749   51.3172 H       1  ZINC000279452407    0.0900
     38 H38        -1.4888    3.5674   53.5853 H       1  ZINC000279452407    0.1600
     39 H39        -0.2316    2.6660   55.6075 H       1  ZINC000279452407    0.1600
     40 H40         2.9325   -0.0706   54.6961 H       1  ZINC000279452407    0.4200
     41 H41         2.4053   -0.1999   56.2862 H       1  ZINC000279452407    0.4200
     42 H42        -1.4455    0.7532   49.9908 H       1  ZINC000279452407    0.0900
     43 H43        -2.9013    0.6338   48.9674 H       1  ZINC000279452407    0.0900
     44 H44        -0.0825   -0.3122   48.2704 H       1  ZINC000279452407    0.0600
     45 H45        -1.5139   -1.3333   48.5533 H       1  ZINC000279452407    0.1100
@<TRIPOS>BOND
     1     1     2    1
     2     1    26    1
     3     1    27    1
     4     1    28    1
     5     2     3    1
     6     2     7    1
     7     2     4    1
     8     4     5    1
     9     5     6    1
    10     5    29    1
    11     5    30    1
    12     6     7    1
    13     6    31    1
    14     6    32    1
    15     7    25    1
    16     7     8    1
    17     8     9    1
    18     8    33    1
    19     8    34    1
    20     9    10   am
    21     9    23    1
    22    10    11    2
    23    10    12   am
    24    12    13    1
    25    12    35    1
    26    13    14    1
    27    13    36    1
    28    13    37    1
    29    14    22    1
    30    14    15    2
    31    15    16    1
    32    15    38    1
    33    16    17    2
    34    16    39    1
    35    17    18    1
    36    17    22    1
    37    18    19   am
    38    18    20    2
    39    18    21    2
    40    19    40    1
    41    19    41    1
    42    23    24    1
    43    23    42    1
    44    23    43    1
    45    24    25    1
    46    24    44    1
    47    24    45    1
@<TRIPOS>SUBSTRUCTURE
     1 ZINC000279452407        1 TEMP              0 ****  ****    0 ROOT


##########                                Name:    ZINC000046390957
##########                DOCK_Rotatable_Bonds:                   9
##########                         Heavy_Atoms:                  29
##########                    Molecular_Weight:             408.521
##########                DOCK_Rotatable_Bonds:                   9
##########                       Formal_Charge:           0.0100005
##########                     HBond_Acceptors:                   6
##########                        HBond_Donors:                   1
##########                         Heavy_Atoms:                  29
##########                          Grid_Score:          -32.456322
##########                     Grid_vdw_energy:          -31.227177
##########                      Grid_es_energy:           -1.229143
##########           Internal_energy_repulsive:           15.673433

@<TRIPOS>MOLECULE
ZINC000046390957
 53 55 1 0 0
SMALL
USER_CHARGES


@<TRIPOS>ATOM
      1 C1         -1.1186    0.1204   49.0210 C.3     1  ZINC000046390957   -0.1100
      2 C2         -0.9894    0.4355   47.5530 C.ar    1  ZINC000046390957   -0.0600
      3 C3         -1.1356   -0.5679   46.6151 C.ar    1  ZINC000046390957   -0.1200
      4 C4         -1.0167   -0.2797   45.2679 C.ar    1  ZINC000046390957   -0.1100
      5 C5         -0.7517    1.0132   44.8551 C.ar    1  ZINC000046390957   -0.1200
      6 C6         -0.6048    2.0211   45.7879 C.ar    1  ZINC000046390957   -0.0800
      7 C7         -0.3165    3.4299   45.3371 C.3     1  ZINC000046390957   -0.1100
      8 C8         -0.7289    1.7359   47.1414 C.ar    1  ZINC000046390957    0.1300
      9 N9         -0.5812    2.7549   48.0890 N.am    1  ZINC000046390957   -0.6800
     10 C10        -1.6704    3.3200   48.6462 C.2     1  ZINC000046390957    0.5200
     11 O11        -2.7788    2.9454   48.3263 O.2     1  ZINC000046390957   -0.4900
     12 C12        -1.5114    4.4174   49.6668 C.3     1  ZINC000046390957    0.0700
     13 H13        -1.0859    4.0042   50.5813 H       1  ZINC000046390957    0.1100
     14 C14        -0.5795    5.4973   49.1133 C.3     1  ZINC000046390957   -0.1700
     15 O15        -2.8092    5.0003   49.9570 O.3     1  ZINC000046390957   -0.3300
     16 C16        -3.3524    4.7145   51.1506 C.2     1  ZINC000046390957    0.4700
     17 O17        -3.6804    5.6081   51.8948 O.2     1  ZINC000046390957   -0.4800
     18 C18        -3.5535    3.2788   51.5626 C.3     1  ZINC000046390957   -0.0300
     19 C19        -4.1346    3.2318   52.9523 C.2     1  ZINC000046390957    0.0800
     20 C20        -3.4066    2.9253   54.0302 C.2     1  ZINC000046390957   -0.2500
     21 S21        -4.4671    2.9859   55.4360 S.3     1  ZINC000046390957    0.1300
     22 C22        -5.7840    3.4173   54.4344 C.2     1  ZINC000046390957    0.0600
     23 C23        -7.1874    3.6760   54.9186 C.3     1  ZINC000046390957    0.0000
     24 C24        -8.1725    3.1779   53.8926 C.ar    1  ZINC000046390957   -0.0900
     25 C25        -9.2991    3.9227   53.5975 C.ar    1  ZINC000046390957   -0.0900
     26 C26       -10.2027    3.4658   52.6564 C.ar    1  ZINC000046390957   -0.1200
     27 C27        -9.9795    2.2644   52.0102 C.ar    1  ZINC000046390957   -0.1200
     28 C28        -8.8525    1.5201   52.3045 C.ar    1  ZINC000046390957   -0.1200
     29 C29        -7.9467    1.9790   53.2426 C.ar    1  ZINC000046390957   -0.1100
     30 N30        -5.4009    3.4948   53.2048 N.2     1  ZINC000046390957   -0.4500
     31 H31        -2.1719    0.1218   49.3016 H       1  ZINC000046390957    0.0800
     32 H32        -0.6906   -0.8620   49.2208 H       1  ZINC000046390957    0.0700
     33 H33        -0.5867    0.8735   49.6024 H       1  ZINC000046390957    0.0600
     34 H34        -1.3427   -1.5786   46.9344 H       1  ZINC000046390957    0.1300
     35 H35        -1.1308   -1.0661   44.5366 H       1  ZINC000046390957    0.1300
     36 H36        -0.6590    1.2350   43.8022 H       1  ZINC000046390957    0.1300
     37 H37        -1.2556    3.9607   45.1807 H       1  ZINC000046390957    0.0700
     38 H38         0.2682    3.9431   46.1006 H       1  ZINC000046390957    0.0600
     39 H39         0.2465    3.4048   44.4042 H       1  ZINC000046390957    0.0700
     40 H40         0.3052    3.0545   48.3448 H       1  ZINC000046390957    0.4100
     41 H41         0.3948    5.0597   48.8955 H       1  ZINC000046390957    0.0800
     42 H42        -1.0049    5.9106   48.1988 H       1  ZINC000046390957    0.0800
     43 H43        -0.4643    6.2911   49.8515 H       1  ZINC000046390957    0.0800
     44 H44        -4.2371    2.7933   50.8661 H       1  ZINC000046390957    0.1200
     45 H45        -2.5949    2.7602   51.5519 H       1  ZINC000046390957    0.1300
     46 H46        -2.3541    2.6832   54.0383 H       1  ZINC000046390957    0.1800
     47 H47        -7.3489    3.1529   55.8612 H       1  ZINC000046390957    0.1000
     48 H48        -7.3287    4.7464   55.0683 H       1  ZINC000046390957    0.1000
     49 H49        -9.4734    4.8614   54.1024 H       1  ZINC000046390957    0.1200
     50 H50       -11.0832    4.0473   52.4264 H       1  ZINC000046390957    0.1200
     51 H51       -10.6859    1.9071   51.2754 H       1  ZINC000046390957    0.1200
     52 H52        -8.6783    0.5813   51.7999 H       1  ZINC000046390957    0.1200
     53 H53        -7.0662    1.3975   53.4726 H       1  ZINC000046390957    0.1200
@<TRIPOS>BOND
     1     1     2    1
     2     1    31    1
     3     1    32    1
     4     1    33    1
     5     2     8   ar
     6     2     3   ar
     7     3     4   ar
     8     3    34    1
     9     4     5   ar
    10     4    35    1
    11     5     6   ar
    12     5    36    1
    13     6     7    1
    14     6     8   ar
    15     7    37    1
    16     7    38    1
    17     7    39    1
    18     8     9    1
    19     9    10   am
    20     9    40    1
    21    10    11    2
    22    10    12    1
    23    12    13    1
    24    12    14    1
    25    12    15    1
    26    14    41    1
    27    14    42    1
    28    14    43    1
    29    15    16    1
    30    16    17    2
    31    16    18    1
    32    18    19    1
    33    18    44    1
    34    18    45    1
    35    19    30    1
    36    19    20    2
    37    20    21    1
    38    20    46    1
    39    21    22    1
    40    22    23    1
    41    22    30    2
    42    23    24    1
    43    23    47    1
    44    23    48    1
    45    24    29   ar
    46    24    25   ar
    47    25    26   ar
    48    25    49    1
    49    26    27   ar
    50    26    50    1
    51    27    28   ar
    52    27    51    1
    53    28    29   ar
    54    28    52    1
    55    29    53    1
@<TRIPOS>SUBSTRUCTURE
     1 ZINC000046390957        1 TEMP              0 ****  ****    0 ROOT


##########                                Name:    ZINC000771225867
##########                DOCK_Rotatable_Bonds:                   9
##########                         Heavy_Atoms:                  23
##########                    Molecular_Weight:             355.802
##########                DOCK_Rotatable_Bonds:                   9
##########                       Formal_Charge:        -3.12924e-07
##########                     HBond_Acceptors:                   9
##########                        HBond_Donors:                   3
##########                         Heavy_Atoms:                  23
##########                          Grid_Score:          -32.452278
##########                     Grid_vdw_energy:          -31.685417
##########                      Grid_es_energy:           -0.766862
##########           Internal_energy_repulsive:            9.806092

@<TRIPOS>MOLECULE
ZINC000771225867
 37 38 1 0 0
SMALL
USER_CHARGES


@<TRIPOS>ATOM
      1 C1         -2.2638    2.4230   56.5949 C.3     1  ZINC000771225867    0.0400
      2 O2         -1.8731    2.7937   55.2712 O.3     1  ZINC000771225867   -0.3600
      3 C3         -2.8563    3.1588   54.4217 C.2     1  ZINC000771225867    0.5500
      4 O4         -4.0122    3.1804   54.8020 O.2     1  ZINC000771225867   -0.4900
      5 C5         -2.5430    3.5164   53.0886 C.2     1  ZINC000771225867   -0.3400
      6 C6         -1.2848    3.6334   52.5581 C.2     1  ZINC000771225867    0.2700
      7 Cl7         0.1599    3.3490   53.4777 Cl      1  ZINC000771225867    0.0400
      8 N8         -1.2706    3.9784   51.2954 N.2     1  ZINC000771225867   -0.5500
      9 C9         -2.4214    4.1631   50.7140 C.2     1  ZINC000771225867    0.3400
     10 N10        -2.5847    4.5268   49.3951 N.pl3   1  ZINC000771225867   -0.6700
     11 C11        -1.4189    4.6303   48.5140 C.3     1  ZINC000771225867    0.1700
     12 C12        -1.3775    3.4379   47.5935 C.ar    1  ZINC000771225867   -0.0800
     13 C13        -1.6079    3.6017   46.2402 C.ar    1  ZINC000771225867   -0.1300
     14 C14        -1.5706    2.5095   45.3929 C.ar    1  ZINC000771225867   -0.0800
     15 C15        -1.3030    1.2517   45.8970 C.ar    1  ZINC000771225867   -0.2000
     16 C16        -1.0714    1.0845   47.2548 C.ar    1  ZINC000771225867    0.1300
     17 O17        -0.8074   -0.1519   47.7531 O.3     1  ZINC000771225867   -0.2900
     18 C18         0.5394   -0.4173   48.1503 C.3     1  ZINC000771225867    0.0400
     19 C19         0.6638   -1.8586   48.5724 C.2     1  ZINC000771225867    0.5200
     20 N20         1.7239   -2.2579   49.3027 N.am    1  ZINC000771225867   -0.8500
     21 O21        -0.1899   -2.6594   48.2548 O.2     1  ZINC000771225867   -0.5200
     22 C22        -1.1038    2.1826   48.1018 C.ar    1  ZINC000771225867   -0.1200
     23 S23        -3.7007    3.8834   51.8122 S.3     1  ZINC000771225867    0.2200
     24 H24        -2.7677    3.2626   57.0736 H       1  ZINC000771225867    0.0600
     25 H25        -2.9420    1.5709   56.5483 H       1  ZINC000771225867    0.0600
     26 H26        -1.3797    2.1525   57.1724 H       1  ZINC000771225867    0.1000
     27 H27        -3.4717    4.7143   49.0500 H       1  ZINC000771225867    0.4200
     28 H28        -1.4902    5.5434   47.9228 H       1  ZINC000771225867    0.0900
     29 H29        -0.5102    4.6568   49.1153 H       1  ZINC000771225867    0.0900
     30 H30        -1.8177    4.5843   45.8443 H       1  ZINC000771225867    0.1300
     31 H31        -1.7512    2.6401   44.3362 H       1  ZINC000771225867    0.1300
     32 H32        -1.2743    0.3990   45.2348 H       1  ZINC000771225867    0.1300
     33 H33         1.2098   -0.2248   47.3128 H       1  ZINC000771225867    0.1000
     34 H34         0.8062    0.2301   48.9856 H       1  ZINC000771225867    0.1000
     35 H35         1.8034   -3.1854   49.5754 H       1  ZINC000771225867    0.4000
     36 H36         2.4072   -1.6177   49.5557 H       1  ZINC000771225867    0.4100
     37 H37        -0.9239    2.0552   49.1591 H       1  ZINC000771225867    0.1400
@<TRIPOS>BOND
     1     1     2    1
     2     1    24    1
     3     1    25    1
     4     1    26    1
     5     2     3    1
     6     3     4    2
     7     3     5    1
     8     5    23    1
     9     5     6    2
    10     6     7    1
    11     6     8    1
    12     8     9    2
    13     9    10    1
    14     9    23    1
    15    10    11    1
    16    10    27    1
    17    11    12    1
    18    11    28    1
    19    11    29    1
    20    12    22   ar
    21    12    13   ar
    22    13    14   ar
    23    13    30    1
    24    14    15   ar
    25    14    31    1
    26    15    16   ar
    27    15    32    1
    28    16    17    1
    29    16    22   ar
    30    17    18    1
    31    18    19    1
    32    18    33    1
    33    18    34    1
    34    19    20   am
    35    19    21    2
    36    20    35    1
    37    20    36    1
    38    22    37    1
@<TRIPOS>SUBSTRUCTURE
     1 ZINC000771225867        1 TEMP              0 ****  ****    0 ROOT


##########                                Name:    ZINC000051488227
##########                DOCK_Rotatable_Bonds:                   8
##########                         Heavy_Atoms:                  30
##########                    Molecular_Weight:             403.478
##########                DOCK_Rotatable_Bonds:                   8
##########                       Formal_Charge:           0.0199996
##########                     HBond_Acceptors:                   5
##########                        HBond_Donors:                   0
##########                         Heavy_Atoms:                  30
##########                          Grid_Score:          -32.441494
##########                     Grid_vdw_energy:          -31.366154
##########                      Grid_es_energy:           -1.075339
##########           Internal_energy_repulsive:           25.052349

@<TRIPOS>MOLECULE
ZINC000051488227
 55 58 1 0 0
SMALL
USER_CHARGES


@<TRIPOS>ATOM
      1 O1          1.2698    1.7251   47.7639 O.2     1  ZINC000051488227   -0.5000
      2 C2          0.3812    2.1030   47.0374 C.2     1  ZINC000051488227    0.4800
      3 O3          0.1248    3.4151   46.9175 O.3     1  ZINC000051488227   -0.3400
      4 C4          0.6103    4.2812   47.9769 C.3     1  ZINC000051488227    0.1100
      5 C5         -0.4250    4.3682   49.0686 C.ar    1  ZINC000051488227   -0.1400
      6 C6         -1.5555    5.1433   48.8874 C.ar    1  ZINC000051488227   -0.0500
      7 C7         -2.5060    5.2248   49.8866 C.ar    1  ZINC000051488227   -0.1500
      8 C8         -2.3256    4.5277   51.0724 C.ar    1  ZINC000051488227    0.1500
      9 O9         -3.2594    4.6058   52.0567 O.3     1  ZINC000051488227   -0.3100
     10 C10        -3.0415    3.8087   53.2225 C.3     1  ZINC000051488227    0.1100
     11 C11        -4.2148    3.9541   54.1570 C.ar    1  ZINC000051488227    0.1200
     12 C12        -4.0287    3.7934   55.5167 C.ar    1  ZINC000051488227   -0.1500
     13 C13        -5.1148    3.9298   56.3681 C.ar    1  ZINC000051488227   -0.0700
     14 C14        -6.3523    4.2240   55.8169 C.ar    1  ZINC000051488227   -0.1700
     15 C15        -6.4618    4.3705   54.4468 C.ar    1  ZINC000051488227    0.1100
     16 N16        -5.4060    4.2387   53.6680 N.ar    1  ZINC000051488227   -0.4800
     17 C17        -1.1906    3.7503   51.2515 C.ar    1  ZINC000051488227   -0.2100
     18 C18        -0.2454    3.6684   50.2474 C.ar    1  ZINC000051488227   -0.0500
     19 C19        -0.4347    1.1017   46.2612 C.3     1  ZINC000051488227    0.0000
     20 C20         0.1969    0.8742   44.9120 C.ar    1  ZINC000051488227   -0.0900
     21 C21        -0.4455    0.0910   43.9714 C.ar    1  ZINC000051488227   -0.1100
     22 C22         0.1338   -0.1175   42.7337 C.ar    1  ZINC000051488227   -0.1200
     23 C23         1.3552    0.4574   42.4365 C.ar    1  ZINC000051488227   -0.1100
     24 C24         1.9971    1.2413   43.3769 C.ar    1  ZINC000051488227   -0.1200
     25 C25         1.4159    1.4535   44.6130 C.ar    1  ZINC000051488227   -0.1000
     26 C26        -0.4913   -0.2208   47.0320 C.3     1  ZINC000051488227   -0.1400
     27 C27        -1.2040    0.0060   48.3678 C.3     1  ZINC000051488227    0.0600
     28 O28        -2.5112    0.5302   48.1258 O.3     1  ZINC000051488227   -0.3800
     29 C29        -2.5190    1.7892   47.4497 C.3     1  ZINC000051488227    0.0500
     30 C30        -1.8592    1.6339   46.0771 C.3     1  ZINC000051488227   -0.1400
     31 H31         1.5350    3.8731   48.3848 H       1  ZINC000051488227    0.0800
     32 H32         0.7987    5.2767   47.5747 H       1  ZINC000051488227    0.0800
     33 H33        -1.6955    5.6858   47.9640 H       1  ZINC000051488227    0.1300
     34 H34        -3.3885    5.8309   49.7448 H       1  ZINC000051488227    0.1400
     35 H35        -2.9348    2.7632   52.9331 H       1  ZINC000051488227    0.0900
     36 H36        -2.1332    4.1410   53.7252 H       1  ZINC000051488227    0.0900
     37 H37        -3.0500    3.5641   55.9115 H       1  ZINC000051488227    0.1400
     38 H38        -4.9994    3.8094   57.4351 H       1  ZINC000051488227    0.1400
     39 H39        -7.2201    4.3368   56.4500 H       1  ZINC000051488227    0.1400
     40 H40        -7.4225    4.5994   54.0095 H       1  ZINC000051488227    0.1600
     41 H41        -1.0477    3.2070   52.1739 H       1  ZINC000051488227    0.1300
     42 H42         0.6382    3.0630   50.3862 H       1  ZINC000051488227    0.1300
     43 H43        -1.3998   -0.3581   44.2036 H       1  ZINC000051488227    0.1300
     44 H44        -0.3677   -0.7300   41.9991 H       1  ZINC000051488227    0.1300
     45 H45         1.8082    0.2938   41.4698 H       1  ZINC000051488227    0.1200
     46 H46         2.9516    1.6903   43.1448 H       1  ZINC000051488227    0.1200
     47 H47         1.9175    2.0660   45.3476 H       1  ZINC000051488227    0.1300
     48 H48        -1.0394   -0.9599   46.4477 H       1  ZINC000051488227    0.0900
     49 H49         0.5217   -0.5790   47.2158 H       1  ZINC000051488227    0.0900
     50 H50        -1.2851   -0.9406   48.9019 H       1  ZINC000051488227    0.1000
     51 H51        -0.6336    0.7147   48.9683 H       1  ZINC000051488227    0.0500
     52 H52        -3.5475    2.1271   47.3226 H       1  ZINC000051488227    0.1000
     53 H53        -1.9659    2.5212   48.0382 H       1  ZINC000051488227    0.0700
     54 H54        -1.8244    2.6023   45.5779 H       1  ZINC000051488227    0.0900
     55 H55        -2.4349    0.9323   45.4734 H       1  ZINC000051488227    0.0900
@<TRIPOS>BOND
     1     1     2    2
     2     2     3    1
     3     2    19    1
     4     3     4    1
     5     4     5    1
     6     4    31    1
     7     4    32    1
     8     5    18   ar
     9     5     6   ar
    10     6     7   ar
    11     6    33    1
    12     7     8   ar
    13     7    34    1
    14     8     9    1
    15     8    17   ar
    16     9    10    1
    17    10    11    1
    18    10    35    1
    19    10    36    1
    20    11    16   ar
    21    11    12   ar
    22    12    13   ar
    23    12    37    1
    24    13    14   ar
    25    13    38    1
    26    14    15   ar
    27    14    39    1
    28    15    16   ar
    29    15    40    1
    30    17    18   ar
    31    17    41    1
    32    18    42    1
    33    19    30    1
    34    19    20    1
    35    19    26    1
    36    20    25   ar
    37    20    21   ar
    38    21    22   ar
    39    21    43    1
    40    22    23   ar
    41    22    44    1
    42    23    24   ar
    43    23    45    1
    44    24    25   ar
    45    24    46    1
    46    25    47    1
    47    26    27    1
    48    26    48    1
    49    26    49    1
    50    27    28    1
    51    27    50    1
    52    27    51    1
    53    28    29    1
    54    29    30    1
    55    29    52    1
    56    29    53    1
    57    30    54    1
    58    30    55    1
@<TRIPOS>SUBSTRUCTURE
     1 ZINC000051488227        1 TEMP              0 ****  ****    0 ROOT


##########                                Name:    ZINC001340305486
##########                DOCK_Rotatable_Bonds:                   8
##########                         Heavy_Atoms:                  27
##########                    Molecular_Weight:             378.431
##########                DOCK_Rotatable_Bonds:                   8
##########                       Formal_Charge:          0.00999955
##########                     HBond_Acceptors:                  10
##########                        HBond_Donors:                   2
##########                         Heavy_Atoms:                  27
##########                          Grid_Score:          -32.418060
##########                     Grid_vdw_energy:          -31.300310
##########                      Grid_es_energy:           -1.117750
##########           Internal_energy_repulsive:           11.619385

@<TRIPOS>MOLECULE
ZINC001340305486
 53 55 1 0 0
SMALL
USER_CHARGES


@<TRIPOS>ATOM
      1 C1         -7.5978    0.8882   59.6159 C.3     1  ZINC001340305486    0.0900
      2 N2         -6.8371    1.5453   58.5502 N.am    1  ZINC001340305486   -0.7300
      3 C3         -6.9710    2.8707   58.3456 C.2     1  ZINC001340305486    0.5200
      4 O4         -7.7222    3.5191   59.0428 O.2     1  ZINC001340305486   -0.5100
      5 C5         -6.1871    3.5471   57.2506 C.3     1  ZINC001340305486    0.0600
      6 H6         -6.7876    4.3440   56.8120 H       1  ZINC001340305486    0.0900
      7 C7         -5.8289    2.5216   56.1690 C.3     1  ZINC001340305486    0.0900
      8 N8         -4.9106    3.1584   55.2115 N.am    1  ZINC001340305486   -0.5800
      9 C9         -5.1451    3.1058   53.8854 C.2     1  ZINC001340305486    0.5100
     10 O10        -6.1257    2.5274   53.4650 O.2     1  ZINC001340305486   -0.5200
     11 C11        -4.1976    3.7597   52.9324 C.2     1  ZINC001340305486    0.5200
     12 O12        -4.4932    4.8150   52.4111 O.2     1  ZINC001340305486   -0.5000
     13 N13        -3.0149    3.1776   52.6520 N.am    1  ZINC001340305486   -0.6900
     14 C14        -2.0869    3.8178   51.7165 C.3     1  ZINC001340305486    0.1200
     15 C15        -2.4747    3.4516   50.2825 C.3     1  ZINC001340305486   -0.0400
     16 C16        -1.2319    3.1314   49.4923 C.2     1  ZINC001340305486    0.1700
     17 N17        -0.0744    3.7302   49.5900 N.2     1  ZINC001340305486   -0.2800
     18 N18         0.7617    3.1947   48.7704 N.2     1  ZINC001340305486   -0.2900
     19 C19         0.1765    2.2302   48.1193 C.2     1  ZINC001340305486    0.1900
     20 C20         0.7933    1.3247   47.0850 C.3     1  ZINC001340305486   -0.0400
     21 C21        -0.1481    1.2256   45.8809 C.3     1  ZINC001340305486   -0.1200
     22 C22        -1.1419    0.0891   46.1012 C.3     1  ZINC001340305486   -0.1300
     23 C23        -1.4858   -0.0412   47.5843 C.3     1  ZINC001340305486   -0.1400
     24 C24        -2.1411    1.2514   48.0785 C.3     1  ZINC001340305486    0.1000
     25 N25        -1.1038    2.1676   48.5538 N.pl3   1  ZINC001340305486   -0.4600
     26 C26        -3.7286    3.8538   55.7448 C.3     1  ZINC001340305486    0.0200
     27 C27        -4.1891    4.8144   56.8471 C.3     1  ZINC001340305486    0.0500
     28 O28        -4.9855    4.0985   57.7942 O.3     1  ZINC001340305486   -0.3500
     29 H29        -7.3342    1.3308   60.5765 H       1  ZINC001340305486    0.0600
     30 H30        -8.6646    1.0204   59.4355 H       1  ZINC001340305486    0.0600
     31 H31        -7.3605   -0.1756   59.6288 H       1  ZINC001340305486    0.0800
     32 H32        -6.2372    1.0266   57.9918 H       1  ZINC001340305486    0.4000
     33 H33        -5.3426    1.6600   56.6266 H       1  ZINC001340305486    0.0900
     34 H34        -6.7338    2.2015   55.6524 H       1  ZINC001340305486    0.1100
     35 H35        -2.7781    2.3347   53.0696 H       1  ZINC001340305486    0.4200
     36 H36        -2.1345    4.8998   51.8407 H       1  ZINC001340305486    0.0900
     37 H37        -1.0726    3.4733   51.9178 H       1  ZINC001340305486    0.0800
     38 H38        -3.1316    2.5819   50.2947 H       1  ZINC001340305486    0.0900
     39 H39        -2.9927    4.2919   49.8203 H       1  ZINC001340305486    0.1100
     40 H40         1.7513    1.7352   46.7659 H       1  ZINC001340305486    0.1000
     41 H41         0.9444    0.3333   47.5121 H       1  ZINC001340305486    0.0900
     42 H42        -0.6899    2.1643   45.7655 H       1  ZINC001340305486    0.0600
     43 H43         0.4338    1.0295   44.9803 H       1  ZINC001340305486    0.0800
     44 H44        -2.0522    0.2929   45.5374 H       1  ZINC001340305486    0.0700
     45 H45        -0.7036   -0.8452   45.7502 H       1  ZINC001340305486    0.0800
     46 H46        -2.1752   -0.8739   47.7248 H       1  ZINC001340305486    0.0900
     47 H47        -0.5745   -0.2262   48.1529 H       1  ZINC001340305486    0.0800
     48 H48        -2.6937    1.7146   47.2611 H       1  ZINC001340305486    0.0900
     49 H49        -2.8245    1.0231   48.8965 H       1  ZINC001340305486    0.1000
     50 H50        -3.0308    3.1264   56.1597 H       1  ZINC001340305486    0.0800
     51 H51        -3.2426    4.4159   54.9473 H       1  ZINC001340305486    0.1700
     52 H52        -3.3186    5.2370   57.3488 H       1  ZINC001340305486    0.1200
     53 H53        -4.7816    5.6165   56.4068 H       1  ZINC001340305486    0.0600
@<TRIPOS>BOND
     1     1     2    1
     2     1    29    1
     3     1    30    1
     4     1    31    1
     5     2     3   am
     6     2    32    1
     7     3     4    2
     8     3     5    1
     9     5     6    1
    10     5    28    1
    11     5     7    1
    12     7     8    1
    13     7    33    1
    14     7    34    1
    15     8     9   am
    16     8    26    1
    17     9    10    2
    18     9    11    1
    19    11    12    2
    20    11    13   am
    21    13    14    1
    22    13    35    1
    23    14    15    1
    24    14    36    1
    25    14    37    1
    26    15    16    1
    27    15    38    1
    28    15    39    1
    29    16    25    1
    30    16    17    2
    31    17    18    1
    32    18    19    2
    33    19    25    1
    34    19    20    1
    35    20    21    1
    36    20    40    1
    37    20    41    1
    38    21    22    1
    39    21    42    1
    40    21    43    1
    41    22    23    1
    42    22    44    1
    43    22    45    1
    44    23    24    1
    45    23    46    1
    46    23    47    1
    47    24    25    1
    48    24    48    1
    49    24    49    1
    50    26    27    1
    51    26    50    1
    52    26    51    1
    53    27    28    1
    54    27    52    1
    55    27    53    1
@<TRIPOS>SUBSTRUCTURE
     1 ZINC001340305486        1 TEMP              0 ****  ****    0 ROOT


##########                                Name:    ZINC000432253027
##########                DOCK_Rotatable_Bonds:                   8
##########                         Heavy_Atoms:                  26
##########                    Molecular_Weight:             401.436
##########                DOCK_Rotatable_Bonds:                   8
##########                       Formal_Charge:         1.19209e-07
##########                     HBond_Acceptors:                  11
##########                        HBond_Donors:                   0
##########                         Heavy_Atoms:                  26
##########                          Grid_Score:          -32.413425
##########                     Grid_vdw_energy:          -33.125565
##########                      Grid_es_energy:            0.712139
##########           Internal_energy_repulsive:            6.537492

@<TRIPOS>MOLECULE
ZINC000432253027
 40 42 1 0 0
SMALL
USER_CHARGES


@<TRIPOS>ATOM
      1 C1         -1.1414    3.9123   45.4881 C.3     1  ZINC000432253027    0.0300
      2 O2         -2.1388    2.9917   45.9352 O.3     1  ZINC000432253027   -0.3100
      3 C3         -1.7227    1.7388   46.2542 C.ar    1  ZINC000432253027    0.1500
      4 C4         -1.8007    0.7209   45.3180 C.ar    1  ZINC000432253027   -0.2100
      5 C5         -1.3774   -0.5541   45.6439 C.ar    1  ZINC000432253027   -0.0600
      6 C6         -0.8734   -0.8227   46.9044 C.ar    1  ZINC000432253027   -0.1600
      7 C7         -0.7892    0.1804   47.8480 C.ar    1  ZINC000432253027   -0.0300
      8 C8         -1.2078    1.4722   47.5290 C.ar    1  ZINC000432253027   -0.0600
      9 C9         -1.1203    2.5510   48.5351 C.2     1  ZINC000432253027    0.1200
     10 N10        -2.1338    3.1749   49.0646 N.2     1  ZINC000432253027   -0.4600
     11 C11        -1.8641    4.1099   49.9471 C.2     1  ZINC000432253027    0.0800
     12 C12        -2.9488    4.9021   50.6304 C.3     1  ZINC000432253027   -0.0200
     13 S13        -3.6736    3.9096   51.9646 S.3     1  ZINC000432253027   -0.1700
     14 C14        -2.3474    3.8575   53.2011 C.3     1  ZINC000432253027   -0.0300
     15 C15        -2.7789    3.0026   54.3648 C.2     1  ZINC000432253027    0.2100
     16 N16        -3.9980    2.6027   54.6324 N.2     1  ZINC000432253027   -0.2700
     17 N17        -3.9571    1.8927   55.7067 N.2     1  ZINC000432253027   -0.0500
     18 N18        -2.7435    1.8293   56.1315 N.2     1  ZINC000432253027   -0.0700
     19 N19        -1.9862    2.4968   55.3278 N.pl3   1  ZINC000432253027   -0.3100
     20 C20        -0.5374    2.6780   55.4466 C.3     1  ZINC000432253027    0.0700
     21 C21        -0.2463    3.9545   56.2382 C.3     1  ZINC000432253027    0.4300
     22 F22         1.1115    3.9964   56.5727 F       1  ZINC000432253027   -0.1500
     23 F23        -0.5692    5.0705   55.4588 F       1  ZINC000432253027   -0.1700
     24 F24        -1.0149    3.9638   57.4072 F       1  ZINC000432253027   -0.1700
     25 C25        -0.5680    4.3146   50.2019 C.2     1  ZINC000432253027   -0.2500
     26 S26         0.3712    3.1948   49.2168 S.3     1  ZINC000432253027    0.1600
     27 H27        -1.6066    4.8731   45.2674 H       1  ZINC000432253027    0.1000
     28 H28        -0.3913    4.0426   46.2683 H       1  ZINC000432253027    0.0600
     29 H29        -0.6656    3.5236   44.5878 H       1  ZINC000432253027    0.0600
     30 H30        -2.1930    0.9235   44.3325 H       1  ZINC000432253027    0.1400
     31 H31        -1.4408   -1.3449   44.9110 H       1  ZINC000432253027    0.1300
     32 H32        -0.5449   -1.8217   47.1506 H       1  ZINC000432253027    0.1300
     33 H33        -0.3955   -0.0333   48.8307 H       1  ZINC000432253027    0.1400
     34 H34        -2.5241    5.8157   51.0466 H       1  ZINC000432253027    0.1000
     35 H35        -3.7225    5.1582   49.9066 H       1  ZINC000432253027    0.1100
     36 H36        -1.4488    3.4339   52.7526 H       1  ZINC000432253027    0.1100
     37 H37        -2.1370    4.8681   53.5510 H       1  ZINC000432253027    0.1300
     38 H38        -0.1055    1.8222   55.9655 H       1  ZINC000432253027    0.1500
     39 H39        -0.0986    2.7592   54.4521 H       1  ZINC000432253027    0.1600
     40 H40        -0.1658    5.0388   50.8948 H       1  ZINC000432253027    0.1800
@<TRIPOS>BOND
     1     1     2    1
     2     1    27    1
     3     1    28    1
     4     1    29    1
     5     2     3    1
     6     3     8   ar
     7     3     4   ar
     8     4     5   ar
     9     4    30    1
    10     5     6   ar
    11     5    31    1
    12     6     7   ar
    13     6    32    1
    14     7     8   ar
    15     7    33    1
    16     8     9    1
    17     9    26    1
    18     9    10    2
    19    10    11    1
    20    11    12    1
    21    11    25    2
    22    12    13    1
    23    12    34    1
    24    12    35    1
    25    13    14    1
    26    14    15    1
    27    14    36    1
    28    14    37    1
    29    15    19    1
    30    15    16    2
    31    16    17    1
    32    17    18    2
    33    18    19    1
    34    19    20    1
    35    20    21    1
    36    20    38    1
    37    20    39    1
    38    21    22    1
    39    21    23    1
    40    21    24    1
    41    25    26    1
    42    25    40    1
@<TRIPOS>SUBSTRUCTURE
     1 ZINC000432253027        1 TEMP              0 ****  ****    0 ROOT


##########                                Name:    ZINC001067316277
##########                DOCK_Rotatable_Bonds:                   5
##########                         Heavy_Atoms:                  24
##########                    Molecular_Weight:             345.469
##########                DOCK_Rotatable_Bonds:                   5
##########                       Formal_Charge:          -0.0200007
##########                     HBond_Acceptors:                   7
##########                        HBond_Donors:                   2
##########                         Heavy_Atoms:                  24
##########                          Grid_Score:          -32.369705
##########                     Grid_vdw_energy:          -31.470266
##########                      Grid_es_energy:           -0.899437
##########           Internal_energy_repulsive:           19.856287

@<TRIPOS>MOLECULE
ZINC001067316277
 47 49 1 0 0
SMALL
USER_CHARGES


@<TRIPOS>ATOM
      1 C1          3.4667    0.5069   40.0770 C.3     1  ZINC001067316277   -0.1400
      2 S2          3.5426    1.4339   41.6297 S.3     1  ZINC001067316277   -0.0400
      3 C3          2.0263    0.9216   42.3664 C.ar    1  ZINC001067316277    0.1800
      4 C4          1.1825    0.0272   41.7031 C.ar    1  ZINC001067316277   -0.2400
      5 C5          0.0042   -0.3465   42.3186 C.ar    1  ZINC001067316277    0.1900
      6 N6         -0.2902    0.1500   43.5114 N.ar    1  ZINC001067316277   -0.5600
      7 C7          0.5288    0.9968   44.1181 C.ar    1  ZINC001067316277    0.5100
      8 N8          0.1851    1.4928   45.3636 N.3     1  ZINC001067316277   -0.4600
      9 C9         -0.7102    2.6502   45.2403 C.3     1  ZINC001067316277    0.0700
     10 C10        -0.9517    3.2595   46.6232 C.3     1  ZINC001067316277   -0.1300
     11 C11        -1.5759    2.2031   47.5391 C.3     1  ZINC001067316277    0.1600
     12 H12        -2.5425    1.8985   47.1379 H       1  ZINC001067316277    0.0900
     13 N13        -1.7571    2.7635   48.8805 N.am    1  ZINC001067316277   -0.7200
     14 C14        -2.7757    2.3409   49.6554 C.2     1  ZINC001067316277    0.5900
     15 O15        -3.5456    1.4949   49.2403 O.2     1  ZINC001067316277   -0.5300
     16 C16        -2.9561    2.9007   50.9990 C.2     1  ZINC001067316277   -0.0600
     17 C17        -2.1682    3.8634   51.5934 C.2     1  ZINC001067316277   -0.1000
     18 C18        -2.6974    4.0992   52.8661 C.2     1  ZINC001067316277   -0.2100
     19 C19        -3.7754    3.2942   53.0235 C.2     1  ZINC001067316277    0.0300
     20 N20        -3.9466    2.5649   51.8940 N.pl3   1  ZINC001067316277   -0.5400
     21 C21        -0.6463    0.9885   47.6118 C.3     1  ZINC001067316277   -0.0700
     22 C22         0.6918    1.4054   48.2256 C.3     1  ZINC001067316277   -0.1400
     23 C23        -1.2898   -0.0961   48.4781 C.3     1  ZINC001067316277   -0.1400
     24 C24        -0.4136    0.4451   46.2003 C.3     1  ZINC001067316277    0.0800
     25 N25         1.6706    1.3761   43.5648 N.ar    1  ZINC001067316277   -0.5400
     26 H26         3.4175   -0.5603   40.2930 H       1  ZINC001067316277    0.0900
     27 H27         2.5796    0.8058   39.5184 H       1  ZINC001067316277    0.0900
     28 H28         4.3571    0.7170   39.4843 H       1  ZINC001067316277    0.1000
     29 H29         1.4456   -0.3627   40.7308 H       1  ZINC001067316277    0.1500
     30 H30        -0.6705   -1.0358   41.8328 H       1  ZINC001067316277    0.1700
     31 H31        -0.2526    3.3957   44.5899 H       1  ZINC001067316277    0.1000
     32 H32        -1.6607    2.3303   44.8133 H       1  ZINC001067316277    0.0500
     33 H33        -0.0032    3.5923   47.0449 H       1  ZINC001067316277    0.0800
     34 H34        -1.6287    4.1090   46.5334 H       1  ZINC001067316277    0.0800
     35 H35        -1.1441    3.4388   49.2109 H       1  ZINC001067316277    0.3900
     36 H36        -1.3049    4.3445   51.1582 H       1  ZINC001067316277    0.1500
     37 H37        -2.3145    4.7986   53.5944 H       1  ZINC001067316277    0.1500
     38 H38        -4.3990    3.2445   53.9040 H       1  ZINC001067316277    0.1700
     39 H39        -4.6471    1.9109   51.7436 H       1  ZINC001067316277    0.4100
     40 H40         0.5251    1.7957   49.2297 H       1  ZINC001067316277    0.0500
     41 H41         1.3530    0.5405   48.2772 H       1  ZINC001067316277    0.0600
     42 H42         1.1504    2.1771   47.6075 H       1  ZINC001067316277    0.0700
     43 H43        -2.2423   -0.3937   48.0395 H       1  ZINC001067316277    0.0600
     44 H44        -0.6276   -0.9604   48.5295 H       1  ZINC001067316277    0.0600
     45 H45        -1.4579    0.2931   49.4823 H       1  ZINC001067316277    0.0600
     46 H46        -1.3655    0.1355   45.7688 H       1  ZINC001067316277    0.0600
     47 H47         0.2593   -0.4112   46.2471 H       1  ZINC001067316277    0.1000
@<TRIPOS>BOND
     1     1     2    1
     2     1    26    1
     3     1    27    1
     4     1    28    1
     5     2     3    1
     6     3    25   ar
     7     3     4   ar
     8     4     5   ar
     9     4    29    1
    10     5     6   ar
    11     5    30    1
    12     6     7   ar
    13     7     8    1
    14     7    25   ar
    15     8    24    1
    16     8     9    1
    17     9    10    1
    18     9    31    1
    19     9    32    1
    20    10    11    1
    21    10    33    1
    22    10    34    1
    23    11    12    1
    24    11    13    1
    25    11    21    1
    26    13    14   am
    27    13    35    1
    28    14    15    2
    29    14    16    1
    30    16    20    1
    31    16    17    2
    32    17    18    1
    33    17    36    1
    34    18    19    2
    35    18    37    1
    36    19    20    1
    37    19    38    1
    38    20    39    1
    39    21    22    1
    40    21    23    1
    41    21    24    1
    42    22    40    1
    43    22    41    1
    44    22    42    1
    45    23    43    1
    46    23    44    1
    47    23    45    1
    48    24    46    1
    49    24    47    1
@<TRIPOS>SUBSTRUCTURE
     1 ZINC001067316277        1 TEMP              0 ****  ****    0 ROOT


##########                                Name:    ZINC000179496896
##########                DOCK_Rotatable_Bonds:                   8
##########                         Heavy_Atoms:                  27
##########                    Molecular_Weight:             396.504
##########                DOCK_Rotatable_Bonds:                   8
##########                       Formal_Charge:          0.00999944
##########                     HBond_Acceptors:                   8
##########                        HBond_Donors:                   1
##########                         Heavy_Atoms:                  27
##########                          Grid_Score:          -32.312454
##########                     Grid_vdw_energy:          -31.324224
##########                      Grid_es_energy:           -0.988229
##########           Internal_energy_repulsive:           22.421305

@<TRIPOS>MOLECULE
ZINC000179496896
 53 55 1 0 0
SMALL
USER_CHARGES


@<TRIPOS>ATOM
      1 C1         -3.8256    6.7248   54.5094 C.3     1  ZINC000179496896   -0.1500
      2 C2         -4.1184    5.5865   53.5300 C.3     1  ZINC000179496896   -0.1100
      3 C3         -5.5982    5.2075   53.6163 C.3     1  ZINC000179496896   -0.1400
      4 C4         -3.7906    6.0414   52.1065 C.3     1  ZINC000179496896    0.1200
      5 N5         -3.4482    4.8755   51.2880 N.pl3   1  ZINC000179496896   -0.3300
      6 N6         -3.7372    3.5428   51.6017 N.2     1  ZINC000179496896   -0.2700
      7 C7         -3.2855    2.7766   50.6476 C.2     1  ZINC000179496896    0.0800
      8 C8         -2.6816    3.6021   49.6730 C.2     1  ZINC000179496896   -0.2500
      9 C9         -2.0411    3.1552   48.4225 C.2     1  ZINC000179496896    0.5900
     10 O10        -1.2869    3.8994   47.8259 O.2     1  ZINC000179496896   -0.5300
     11 N11        -2.2916    1.9216   47.9406 N.am    1  ZINC000179496896   -0.7100
     12 C12        -1.6566    1.4782   46.6971 C.3     1  ZINC000179496896    0.1300
     13 C13        -0.3194    0.8076   47.0184 C.3     1  ZINC000179496896    0.0700
     14 H14         0.2321    1.4201   47.7317 H       1  ZINC000179496896    0.0900
     15 C15        -0.5743   -0.5746   47.6229 C.3     1  ZINC000179496896   -0.1900
     16 N16         0.4659    0.6654   45.7851 N.3     1  ZINC000179496896   -0.5300
     17 C17         1.2553    1.8767   45.5206 C.3     1  ZINC000179496896    0.0600
     18 C18         2.3396    1.5528   44.4857 C.3     1  ZINC000179496896   -0.0400
     19 C19         1.6838    0.8275   43.3297 C.2     1  ZINC000179496896   -0.1700
     20 C20         0.4551    0.2763   43.3863 C.2     1  ZINC000179496896   -0.1100
     21 C21         0.0627   -0.3347   42.2008 C.2     1  ZINC000179496896   -0.1200
     22 C22         0.9457   -0.2843   41.2073 C.2     1  ZINC000179496896   -0.2200
     23 S23         2.3836    0.5758   41.7390 S.3     1  ZINC000179496896    0.1000
     24 C24        -0.3993    0.3328   44.6454 C.3     1  ZINC000179496896    0.1200
     25 C25        -2.8094    4.9062   50.1075 C.2     1  ZINC000179496896    0.0700
     26 C26        -2.3137    6.1370   49.3932 C.3     1  ZINC000179496896    0.3400
     27 F27        -3.1221    7.2284   49.7287 F       1  ZINC000179496896   -0.1500
     28 F28        -0.9940    6.3990   49.7765 F       1  ZINC000179496896   -0.2000
     29 H29        -4.0592    6.4007   55.5236 H       1  ZINC000179496896    0.0600
     30 H30        -2.7714    6.9948   54.4479 H       1  ZINC000179496896    0.0600
     31 H31        -4.4376    7.5899   54.2545 H       1  ZINC000179496896    0.0600
     32 H32        -3.5064    4.7213   53.7850 H       1  ZINC000179496896    0.0800
     33 H33        -6.2103    6.0726   53.3612 H       1  ZINC000179496896    0.0600
     34 H34        -5.8069    4.3965   52.9185 H       1  ZINC000179496896    0.0600
     35 H35        -5.8319    4.8833   54.6304 H       1  ZINC000179496896    0.0700
     36 H36        -4.6569    6.5448   51.6773 H       1  ZINC000179496896    0.1000
     37 H37        -2.9455    6.7293   52.1304 H       1  ZINC000179496896    0.1000
     38 H38        -3.3598    1.6998   50.6095 H       1  ZINC000179496896    0.2000
     39 H39        -2.8924    1.3276   48.4171 H       1  ZINC000179496896    0.4100
     40 H40        -2.3078    0.7659   46.1905 H       1  ZINC000179496896    0.0700
     41 H41        -1.4855    2.3383   46.0497 H       1  ZINC000179496896    0.0700
     42 H42         0.3783   -1.0523   47.8518 H       1  ZINC000179496896    0.0600
     43 H43        -1.1571   -0.4690   48.5380 H       1  ZINC000179496896    0.0700
     44 H44        -1.1258   -1.1871   46.9096 H       1  ZINC000179496896    0.0600
     45 H45         0.6032    2.6592   45.1325 H       1  ZINC000179496896    0.0400
     46 H46         1.7232    2.2159   46.4448 H       1  ZINC000179496896    0.0900
     47 H47         2.7962    2.4762   44.1295 H       1  ZINC000179496896    0.0800
     48 H48         3.1001    0.9153   44.9366 H       1  ZINC000179496896    0.0900
     49 H49        -0.8965   -0.8190   42.0936 H       1  ZINC000179496896    0.1400
     50 H50         0.8012   -0.7070   40.2240 H       1  ZINC000179496896    0.1600
     51 H51        -0.8685   -0.6367   44.8130 H       1  ZINC000179496896    0.0900
     52 H52        -1.1665    1.0988   44.5327 H       1  ZINC000179496896    0.0500
     53 H53        -2.3534    5.9730   48.3163 H       1  ZINC000179496896    0.1300
@<TRIPOS>BOND
     1     1     2    1
     2     1    29    1
     3     1    30    1
     4     1    31    1
     5     2     3    1
     6     2     4    1
     7     2    32    1
     8     3    33    1
     9     3    34    1
    10     3    35    1
    11     4     5    1
    12     4    36    1
    13     4    37    1
    14     5    25    1
    15     5     6    1
    16     6     7    2
    17     7     8    1
    18     7    38    1
    19     8     9    1
    20     8    25    2
    21     9    10    2
    22     9    11   am
    23    11    12    1
    24    11    39    1
    25    12    13    1
    26    12    40    1
    27    12    41    1
    28    13    14    1
    29    13    15    1
    30    13    16    1
    31    15    42    1
    32    15    43    1
    33    15    44    1
    34    16    24    1
    35    16    17    1
    36    17    18    1
    37    17    45    1
    38    17    46    1
    39    18    19    1
    40    18    47    1
    41    18    48    1
    42    19    23    1
    43    19    20    2
    44    20    21    1
    45    20    24    1
    46    21    22    2
    47    21    49    1
    48    22    23    1
    49    22    50    1
    50    24    51    1
    51    24    52    1
    52    25    26    1
    53    26    27    1
    54    26    28    1
    55    26    53    1
@<TRIPOS>SUBSTRUCTURE
     1 ZINC000179496896        1 TEMP              0 ****  ****    0 ROOT


##########                                Name:    ZINC000541568816
##########                DOCK_Rotatable_Bonds:                   8
##########                         Heavy_Atoms:                  25
##########                    Molecular_Weight:             411.339
##########                DOCK_Rotatable_Bonds:                   8
##########                       Formal_Charge:          -0.0100007
##########                     HBond_Acceptors:                   5
##########                        HBond_Donors:                   1
##########                         Heavy_Atoms:                  25
##########                          Grid_Score:          -32.303459
##########                     Grid_vdw_energy:          -32.539185
##########                      Grid_es_energy:            0.235725
##########           Internal_energy_repulsive:           20.119131

@<TRIPOS>MOLECULE
ZINC000541568816
 52 54 1 0 0
SMALL
USER_CHARGES


@<TRIPOS>ATOM
      1 C1          0.5822   -1.8266   48.7067 C.3     1  ZINC000541568816   -0.1500
      2 C2          1.3691   -0.6536   48.1185 C.3     1  ZINC000541568816    0.0600
      3 O3          0.4779    0.2105   47.4107 O.3     1  ZINC000541568816   -0.3700
      4 C4         -0.1389    1.2060   48.2294 C.3     1  ZINC000541568816    0.0700
      5 H5          0.5584    1.6757   48.9231 H       1  ZINC000541568816    0.0900
      6 C6         -1.4465    0.7370   48.8918 C.3     1  ZINC000541568816   -0.1700
      7 C7         -2.0151    2.1329   48.5819 C.3     1  ZINC000541568816    0.1500
      8 H8         -3.0500    2.1174   48.2401 H       1  ZINC000541568816    0.1100
      9 N9         -1.7817    3.1120   49.6465 N.am    1  ZINC000541568816   -0.7200
     10 C10        -2.7264    3.3267   50.5835 C.2     1  ZINC000541568816    0.7100
     11 O11        -3.7717    2.7068   50.5460 O.2     1  ZINC000541568816   -0.5800
     12 N12        -2.5124    4.2285   51.5619 N.am    1  ZINC000541568816   -0.6300
     13 C13        -1.2521    4.9741   51.6080 C.3     1  ZINC000541568816    0.1000
     14 C14        -1.3476    6.1942   50.6897 C.3     1  ZINC000541568816   -0.1800
     15 C15        -3.5400    4.4632   52.5794 C.3     1  ZINC000541568816    0.1700
     16 C16        -3.3340    3.5120   53.7299 C.ar    1  ZINC000541568816   -0.0700
     17 C17        -2.0622    3.0714   54.0432 C.ar    1  ZINC000541568816   -0.1000
     18 C18        -1.8732    2.1987   55.0988 C.ar    1  ZINC000541568816   -0.1000
     19 C19        -2.9560    1.7669   55.8416 C.ar    1  ZINC000541568816   -0.1200
     20 C20        -4.2286    2.2071   55.5290 C.ar    1  ZINC000541568816   -0.0900
     21 C21        -4.4175    3.0842   54.4763 C.ar    1  ZINC000541568816   -0.0900
     22 Br22       -6.1581    3.6868   54.0481 Br      1  ZINC000541568816   -0.0500
     23 C23        -0.9907    2.2072   47.4426 C.3     1  ZINC000541568816    0.0800
     24 C24        -1.5011    1.6872   46.0875 C.3     1  ZINC000541568816   -0.1200
     25 C25        -1.6256    2.9987   45.2627 C.3     1  ZINC000541568816   -0.1600
     26 C26        -0.4458    3.8233   45.8377 C.3     1  ZINC000541568816    0.0500
     27 O27        -0.3984    3.4879   47.2356 O.3     1  ZINC000541568816   -0.3600
     28 H28        -0.1769   -1.4481   49.3912 H       1  ZINC000541568816    0.0600
     29 H29         0.1011   -2.3816   47.9014 H       1  ZINC000541568816    0.0600
     30 H30         1.2620   -2.4858   49.2467 H       1  ZINC000541568816    0.0700
     31 H31         1.8503   -0.0987   48.9238 H       1  ZINC000541568816    0.0500
     32 H32         2.1283   -1.0322   47.4340 H       1  ZINC000541568816    0.0500
     33 H33        -1.9454   -0.0673   48.3511 H       1  ZINC000541568816    0.1000
     34 H34        -1.3469    0.5332   49.9579 H       1  ZINC000541568816    0.0800
     35 H35        -0.9473    3.6056   49.6769 H       1  ZINC000541568816    0.4000
     36 H36        -1.0614    5.3024   52.6297 H       1  ZINC000541568816    0.0900
     37 H37        -0.4373    4.3314   51.2746 H       1  ZINC000541568816    0.0700
     38 H38        -2.1624    6.8370   51.0229 H       1  ZINC000541568816    0.0600
     39 H39        -0.4099    6.7490   50.7239 H       1  ZINC000541568816    0.0700
     40 H40        -1.5384    5.8659   49.6680 H       1  ZINC000541568816    0.0600
     41 H41        -3.4675    5.4896   52.9390 H       1  ZINC000541568816    0.1000
     42 H42        -4.5260    4.2993   52.1445 H       1  ZINC000541568816    0.1100
     43 H43        -1.2159    3.4085   53.4632 H       1  ZINC000541568816    0.1300
     44 H44        -0.8792    1.8539   55.3430 H       1  ZINC000541568816    0.1300
     45 H45        -2.8078    1.0852   56.6661 H       1  ZINC000541568816    0.1300
     46 H46        -5.0746    1.8695   56.1091 H       1  ZINC000541568816    0.1300
     47 H47        -0.7784    1.0092   45.6337 H       1  ZINC000541568816    0.1000
     48 H48        -2.4715    1.2029   46.1971 H       1  ZINC000541568816    0.0900
     49 H49        -1.4891    2.8076   44.1983 H       1  ZINC000541568816    0.0900
     50 H50        -2.5786    3.4926   45.4519 H       1  ZINC000541568816    0.0800
     51 H51         0.4867    3.5406   45.3492 H       1  ZINC000541568816    0.0600
     52 H52        -0.6322    4.8897   45.7107 H       1  ZINC000541568816    0.0900
@<TRIPOS>BOND
     1     1     2    1
     2     1    28    1
     3     1    29    1
     4     1    30    1
     5     2     3    1
     6     2    31    1
     7     2    32    1
     8     3     4    1
     9     4     5    1
    10     4    23    1
    11     4     6    1
    12     6     7    1
    13     6    33    1
    14     6    34    1
    15     7     8    1
    16     7     9    1
    17     7    23    1
    18     9    10   am
    19     9    35    1
    20    10    11    2
    21    10    12   am
    22    12    13    1
    23    12    15    1
    24    13    14    1
    25    13    36    1
    26    13    37    1
    27    14    38    1
    28    14    39    1
    29    14    40    1
    30    15    16    1
    31    15    41    1
    32    15    42    1
    33    16    21   ar
    34    16    17   ar
    35    17    18   ar
    36    17    43    1
    37    18    19   ar
    38    18    44    1
    39    19    20   ar
    40    19    45    1
    41    20    21   ar
    42    20    46    1
    43    21    22    1
    44    23    27    1
    45    23    24    1
    46    24    25    1
    47    24    47    1
    48    24    48    1
    49    25    26    1
    50    25    49    1
    51    25    50    1
    52    26    27    1
    53    26    51    1
    54    26    52    1
@<TRIPOS>SUBSTRUCTURE
     1 ZINC000541568816        1 TEMP              0 ****  ****    0 ROOT


##########                                Name:    ZINC000301324012
##########                DOCK_Rotatable_Bonds:                   7
##########                         Heavy_Atoms:                  28
##########                    Molecular_Weight:               415.9
##########                DOCK_Rotatable_Bonds:                   7
##########                       Formal_Charge:          -0.0100002
##########                     HBond_Acceptors:                   8
##########                        HBond_Donors:                   2
##########                         Heavy_Atoms:                  28
##########                          Grid_Score:          -32.260273
##########                     Grid_vdw_energy:          -30.705233
##########                      Grid_es_energy:           -1.555039
##########           Internal_energy_repulsive:           11.183777

@<TRIPOS>MOLECULE
ZINC000301324012
 46 48 1 0 0
SMALL
USER_CHARGES


@<TRIPOS>ATOM
      1 C1         -2.5703    5.4888   53.4988 C.3     1  ZINC000301324012   -0.1600
      2 C2         -3.5713    4.4506   52.9879 C.3     1  ZINC000301324012    0.2000
      3 H3         -4.3901    4.9565   52.4764 H       1  ZINC000301324012    0.1100
      4 N4         -2.8996    3.5424   52.0550 N.am    1  ZINC000301324012   -0.7100
      5 C5         -2.6480    3.9389   50.7918 C.2     1  ZINC000301324012    0.5500
      6 O6         -2.9770    5.0508   50.4269 O.2     1  ZINC000301324012   -0.5300
      7 C7         -1.9718    3.0217   49.8499 C.ar    1  ZINC000301324012   -0.0700
      8 C8         -0.8355    3.4414   49.1567 C.ar    1  ZINC000301324012   -0.1100
      9 C9         -0.2089    2.5804   48.2796 C.ar    1  ZINC000301324012   -0.0200
     10 C10        -0.7048    1.3033   48.0862 C.ar    1  ZINC000301324012   -0.6600
     11 S11         0.1012    0.2101   46.9638 S.o2    1  ZINC000301324012    2.6900
     12 O12         1.4923    0.3087   47.2369 O.2     1  ZINC000301324012   -0.9400
     13 O13        -0.6155   -1.0159   47.0135 O.2     1  ZINC000301324012   -0.9400
     14 N14        -0.1207    0.8202   45.4404 N.am    1  ZINC000301324012   -1.0500
     15 C15         0.3546    2.0953   45.1224 C.ar    1  ZINC000301324012    0.1600
     16 C16         1.6962    2.2818   44.8175 C.ar    1  ZINC000301324012   -0.1600
     17 C17         2.1630    3.5436   44.5034 C.ar    1  ZINC000301324012   -0.0800
     18 C18         1.2962    4.6206   44.4927 C.ar    1  ZINC000301324012   -0.1200
     19 C19        -0.0412    4.4393   44.7958 C.ar    1  ZINC000301324012   -0.0900
     20 C20        -0.5161    3.1791   45.1048 C.ar    1  ZINC000301324012   -0.0600
     21 Cl21       -2.1946    2.9519   45.4851 Cl      1  ZINC000301324012   -0.0600
     22 C22        -1.8306    0.8807   48.7707 C.ar    1  ZINC000301324012   -0.0200
     23 C23        -2.4635    1.7301   49.6545 C.ar    1  ZINC000301324012   -0.0800
     24 C24        -4.1161    3.6631   54.1515 C.ar    1  ZINC000301324012    0.1200
     25 C25        -5.4674    3.3809   54.2123 C.ar    1  ZINC000301324012   -0.1600
     26 C26        -5.9585    2.6552   55.2871 C.ar    1  ZINC000301324012   -0.0700
     27 C27        -5.0677    2.2388   56.2642 C.ar    1  ZINC000301324012   -0.1700
     28 C28        -3.7291    2.5586   56.1357 C.ar    1  ZINC000301324012    0.1100
     29 N29        -3.2966    3.2464   55.0971 N.ar    1  ZINC000301324012   -0.4900
     30 H30        -3.0700    6.1646   54.1928 H       1  ZINC000301324012    0.0700
     31 H31        -1.7514    4.9830   54.0103 H       1  ZINC000301324012    0.0600
     32 H32        -2.1762    6.0585   52.6572 H       1  ZINC000301324012    0.0700
     33 H33        -2.6362    2.6556   52.3466 H       1  ZINC000301324012    0.4100
     34 H34        -0.4478    4.4384   49.3062 H       1  ZINC000301324012    0.1400
     35 H35         0.6705    2.9040   47.7426 H       1  ZINC000301324012    0.1500
     36 H36        -0.5807    0.2925   44.7690 H       1  ZINC000301324012    0.4300
     37 H37         2.3744    1.4413   44.8262 H       1  ZINC000301324012    0.1700
     38 H38         3.2066    3.6890   44.2662 H       1  ZINC000301324012    0.1400
     39 H39         1.6642    5.6060   44.2475 H       1  ZINC000301324012    0.1400
     40 H40        -0.7155    5.2827   44.7865 H       1  ZINC000301324012    0.1400
     41 H41        -2.2124   -0.1176   48.6155 H       1  ZINC000301324012    0.1500
     42 H42        -3.3420    1.3988   50.1885 H       1  ZINC000301324012    0.1500
     43 H43        -6.1329    3.7218   53.4329 H       1  ZINC000301324012    0.1400
     44 H44        -7.0101    2.4202   55.3612 H       1  ZINC000301324012    0.1400
     45 H45        -5.4153    1.6720   57.1153 H       1  ZINC000301324012    0.1400
     46 H46        -3.0288    2.2383   56.8929 H       1  ZINC000301324012    0.1600
@<TRIPOS>BOND
     1     1     2    1
     2     1    30    1
     3     1    31    1
     4     1    32    1
     5     2     3    1
     6     2     4    1
     7     2    24    1
     8     4     5   am
     9     4    33    1
    10     5     6    2
    11     5     7    1
    12     7    23   ar
    13     7     8   ar
    14     8     9   ar
    15     8    34    1
    16     9    10   ar
    17     9    35    1
    18    10    11    1
    19    10    22   ar
    20    11    12    2
    21    11    13    2
    22    11    14   am
    23    14    15    1
    24    14    36    1
    25    15    20   ar
    26    15    16   ar
    27    16    17   ar
    28    16    37    1
    29    17    18   ar
    30    17    38    1
    31    18    19   ar
    32    18    39    1
    33    19    20   ar
    34    19    40    1
    35    20    21    1
    36    22    23   ar
    37    22    41    1
    38    23    42    1
    39    24    29   ar
    40    24    25   ar
    41    25    26   ar
    42    25    43    1
    43    26    27   ar
    44    26    44    1
    45    27    28   ar
    46    27    45    1
    47    28    29   ar
    48    28    46    1
@<TRIPOS>SUBSTRUCTURE
     1 ZINC000301324012        1 TEMP              0 ****  ****    0 ROOT


##########                                Name:    ZINC000512699033
##########                DOCK_Rotatable_Bonds:                   9
##########                         Heavy_Atoms:                  30
##########                    Molecular_Weight:              405.54
##########                DOCK_Rotatable_Bonds:                   9
##########                       Formal_Charge:           0.0199988
##########                     HBond_Acceptors:                   5
##########                        HBond_Donors:                   2
##########                         Heavy_Atoms:                  30
##########                          Grid_Score:          -32.259563
##########                     Grid_vdw_energy:          -33.581665
##########                      Grid_es_energy:            1.322102
##########           Internal_energy_repulsive:           12.367156

@<TRIPOS>MOLECULE
ZINC000512699033
 61 64 1 0 0
SMALL
USER_CHARGES


@<TRIPOS>ATOM
      1 O1         -8.0320   -0.7962   59.0144 O.2     1  ZINC000512699033   -0.5100
      2 C2         -8.9626   -0.2070   59.5223 C.2     1  ZINC000512699033    0.5200
      3 C3         -8.9070    0.1765   60.9785 C.3     1  ZINC000512699033   -0.1500
      4 C4         -9.5593   -0.9219   61.8205 C.3     1  ZINC000512699033    0.1300
      5 N5         -9.7460   -0.4405   63.1915 N.am    1  ZINC000512699033   -0.7300
      6 C6         -8.7606   -0.5910   64.0985 C.2     1  ZINC000512699033    0.5200
      7 O7         -7.7200   -1.1265   63.7804 O.2     1  ZINC000512699033   -0.5300
      8 C8         -8.9519   -0.0941   65.5084 C.3     1  ZINC000512699033   -0.1100
      9 C9         -7.5986    0.3157   66.0927 C.3     1  ZINC000512699033   -0.1100
     10 C10        -7.7929    0.8202   67.5241 C.3     1  ZINC000512699033   -0.1200
     11 C11        -8.7319    2.0281   67.5161 C.3     1  ZINC000512699033   -0.1200
     12 C12       -10.0852    1.6182   66.9317 C.3     1  ZINC000512699033   -0.1200
     13 C13        -9.8910    1.1138   65.5004 C.3     1  ZINC000512699033   -0.1000
     14 N14       -10.0440    0.1097   58.7828 N.am    1  ZINC000512699033   -0.6600
     15 C15       -10.0955   -0.2465   57.4305 C.ar    1  ZINC000512699033    0.1700
     16 C16        -9.5061    0.5687   56.4734 C.ar    1  ZINC000512699033   -0.1400
     17 C17        -9.5582    0.2141   55.1394 C.ar    1  ZINC000512699033   -0.1000
     18 C18       -10.1969   -0.9510   54.7568 C.ar    1  ZINC000512699033   -0.1400
     19 C19       -10.7850   -1.7651   55.7077 C.ar    1  ZINC000512699033   -0.0900
     20 C20       -10.7314   -1.4190   57.0435 C.ar    1  ZINC000512699033   -0.1200
     21 C21       -11.3723   -2.3067   58.0789 C.3     1  ZINC000512699033    0.0900
     22 N22       -12.6948   -2.7361   57.6048 N.3     1  ZINC000512699033   -0.4700
     23 C23       -12.7602   -4.2083   57.4780 C.3     1  ZINC000512699033    0.0500
     24 C24       -14.2471   -4.5077   57.7767 C.3     1  ZINC000512699033   -0.0900
     25 C25       -14.6617   -3.3301   58.6362 C.ar    1  ZINC000512699033   -0.1400
     26 C26       -15.7528   -3.1354   59.4563 C.ar    1  ZINC000512699033   -0.0800
     27 C27       -15.8962   -1.9464   60.1490 C.ar    1  ZINC000512699033   -0.1400
     28 C28       -14.9432   -0.9533   60.0176 C.ar    1  ZINC000512699033   -0.0900
     29 C29       -13.8508   -1.1423   59.1966 C.ar    1  ZINC000512699033   -0.1400
     30 C30       -13.7007   -2.3360   58.4932 C.ar    1  ZINC000512699033    0.0900
     31 H31        -7.8675    0.2985   61.2828 H       1  ZINC000512699033    0.1100
     32 H32        -9.4418    1.1145   61.1279 H       1  ZINC000512699033    0.1000
     33 H33       -10.5272   -1.1819   61.3918 H       1  ZINC000512699033    0.0800
     34 H34        -8.9174   -1.8027   61.8289 H       1  ZINC000512699033    0.0800
     35 H35       -10.5787   -0.0132   63.4463 H       1  ZINC000512699033    0.4000
     36 H36        -9.3855   -0.8874   66.1174 H       1  ZINC000512699033    0.1000
     37 H37        -6.9297   -0.5448   66.0984 H       1  ZINC000512699033    0.0700
     38 H38        -7.1651    1.1089   65.4837 H       1  ZINC000512699033    0.0700
     39 H39        -8.2264    0.0270   68.1332 H       1  ZINC000512699033    0.0600
     40 H40        -6.8288    1.1122   67.9404 H       1  ZINC000512699033    0.0700
     41 H41        -8.8703    2.3875   68.5358 H       1  ZINC000512699033    0.0600
     42 H42        -8.2984    2.8213   66.9070 H       1  ZINC000512699033    0.0600
     43 H43       -10.5188    0.8251   67.5408 H       1  ZINC000512699033    0.0600
     44 H44       -10.7542    2.4788   66.9260 H       1  ZINC000512699033    0.0700
     45 H45        -9.4573    1.9070   64.8913 H       1  ZINC000512699033    0.0700
     46 H46       -10.8550    0.8217   65.0841 H       1  ZINC000512699033    0.0700
     47 H47       -10.7864    0.5845   59.1879 H       1  ZINC000512699033    0.4200
     48 H48        -9.0076    1.4793   56.7717 H       1  ZINC000512699033    0.1500
     49 H49        -9.1001    0.8477   54.3945 H       1  ZINC000512699033    0.1300
     50 H50       -10.2370   -1.2256   53.7131 H       1  ZINC000512699033    0.1200
     51 H51       -11.2831   -2.6745   55.4057 H       1  ZINC000512699033    0.1200
     52 H52       -10.7445   -3.1819   58.2461 H       1  ZINC000512699033    0.0600
     53 H53       -11.4826   -1.7550   59.0125 H       1  ZINC000512699033    0.0900
     54 H54       -12.4981   -4.5213   56.4673 H       1  ZINC000512699033    0.1000
     55 H55       -12.1139   -4.6887   58.2125 H       1  ZINC000512699033    0.0600
     56 H56       -14.8280   -4.5360   56.8547 H       1  ZINC000512699033    0.0900
     57 H57       -14.3495   -5.4427   58.3276 H       1  ZINC000512699033    0.0800
     58 H58       -16.4965   -3.9119   59.5580 H       1  ZINC000512699033    0.1200
     59 H59       -16.7514   -1.7940   60.7906 H       1  ZINC000512699033    0.1300
     60 H60       -15.0546   -0.0260   60.5596 H       1  ZINC000512699033    0.1300
     61 H61       -13.1100   -0.3625   59.0980 H       1  ZINC000512699033    0.1200
@<TRIPOS>BOND
     1     1     2    2
     2     2     3    1
     3     2    14   am
     4     3     4    1
     5     3    31    1
     6     3    32    1
     7     4     5    1
     8     4    33    1
     9     4    34    1
    10     5     6   am
    11     5    35    1
    12     6     7    2
    13     6     8    1
    14     8    13    1
    15     8     9    1
    16     8    36    1
    17     9    10    1
    18     9    37    1
    19     9    38    1
    20    10    11    1
    21    10    39    1
    22    10    40    1
    23    11    12    1
    24    11    41    1
    25    11    42    1
    26    12    13    1
    27    12    43    1
    28    12    44    1
    29    13    45    1
    30    13    46    1
    31    14    15    1
    32    14    47    1
    33    15    20   ar
    34    15    16   ar
    35    16    17   ar
    36    16    48    1
    37    17    18   ar
    38    17    49    1
    39    18    19   ar
    40    18    50    1
    41    19    20   ar
    42    19    51    1
    43    20    21    1
    44    21    22    1
    45    21    52    1
    46    21    53    1
    47    22    30    1
    48    22    23    1
    49    23    24    1
    50    23    54    1
    51    23    55    1
    52    24    25    1
    53    24    56    1
    54    24    57    1
    55    25    30   ar
    56    25    26   ar
    57    26    27   ar
    58    26    58    1
    59    27    28   ar
    60    27    59    1
    61    28    29   ar
    62    28    60    1
    63    29    30   ar
    64    29    61    1
@<TRIPOS>SUBSTRUCTURE
     1 ZINC000512699033        1 TEMP              0 ****  ****    0 ROOT


##########                                Name:    ZINC000457806032
##########                DOCK_Rotatable_Bonds:                   8
##########                         Heavy_Atoms:                  24
##########                    Molecular_Weight:             387.911
##########                DOCK_Rotatable_Bonds:                   8
##########                       Formal_Charge:        -1.49012e-07
##########                     HBond_Acceptors:                   9
##########                        HBond_Donors:                   2
##########                         Heavy_Atoms:                  24
##########                          Grid_Score:          -32.251659
##########                     Grid_vdw_energy:          -31.885267
##########                      Grid_es_energy:           -0.366392
##########           Internal_energy_repulsive:            5.833457

@<TRIPOS>MOLECULE
ZINC000457806032
 42 43 1 0 0
SMALL
USER_CHARGES


@<TRIPOS>ATOM
      1 C1         -0.1012    5.4525   55.8252 C.3     1  ZINC000457806032    0.0800
      2 N2         -0.1742    4.3062   56.7345 N.am    1  ZINC000457806032   -1.0100
      3 C3          0.4747    4.3695   58.0464 C.3     1  ZINC000457806032    0.0900
      4 S4         -0.9905    2.9390   56.2796 S.o2    1  ZINC000457806032    2.7900
      5 O5         -0.4512    2.5489   55.0241 O.2     1  ZINC000457806032   -0.9700
      6 O6         -1.0096    2.0862   57.4161 O.2     1  ZINC000457806032   -0.9700
      7 N7         -2.5623    3.3776   55.9976 N.am    1  ZINC000457806032   -1.1300
      8 C8         -3.5391    2.3710   55.5749 C.3     1  ZINC000457806032    0.1100
      9 C9         -4.4495    2.9643   54.4979 C.3     1  ZINC000457806032    0.1100
     10 N10        -3.7239    3.0296   53.2269 N.am    1  ZINC000457806032   -0.7300
     11 C11        -3.9174    4.0707   52.3932 C.2     1  ZINC000457806032    0.5800
     12 O12        -4.6933    4.9569   52.6967 O.2     1  ZINC000457806032   -0.5300
     13 C13        -3.1895    4.1354   51.1149 C.2     1  ZINC000457806032   -0.1500
     14 C14        -2.6058    5.2753   50.6502 C.2     1  ZINC000457806032   -0.2200
     15 S15        -1.8523    4.9916   49.1463 S.3     1  ZINC000457806032    0.2400
     16 C16        -2.3397    3.3038   49.1554 C.2     1  ZINC000457806032   -0.1700
     17 C17        -2.0290    2.3248   48.0912 C.ar    1  ZINC000457806032   -0.0100
     18 C18        -1.9503    0.9645   48.3923 C.ar    1  ZINC000457806032   -0.0900
     19 C19        -1.6601    0.0560   47.3956 C.ar    1  ZINC000457806032   -0.1000
     20 C20        -1.4466    0.4917   46.0987 C.ar    1  ZINC000457806032   -0.0300
     21 Cl21       -1.0812   -0.6574   44.8498 Cl      1  ZINC000457806032   -0.0600
     22 C22        -1.5237    1.8401   45.7940 C.ar    1  ZINC000457806032   -0.1000
     23 C23        -1.8190    2.7573   46.7813 C.ar    1  ZINC000457806032   -0.1000
     24 C24        -3.0309    3.0327   50.2739 C.2     1  ZINC000457806032   -0.0700
     25 H25         0.7800    5.3575   55.1908 H       1  ZINC000457806032    0.0600
     26 H26        -0.9957    5.4801   55.2027 H       1  ZINC000457806032    0.0800
     27 H27        -0.0339    6.3729   56.4053 H       1  ZINC000457806032    0.0800
     28 H28        -0.2274    4.7645   58.7805 H       1  ZINC000457806032    0.0600
     29 H29         0.7885    3.3692   58.3451 H       1  ZINC000457806032    0.0700
     30 H30         1.3462    5.0217   57.9896 H       1  ZINC000457806032    0.0700
     31 H31        -2.8362    4.3010   56.1124 H       1  ZINC000457806032    0.4200
     32 H32        -3.0159    1.5041   55.1712 H       1  ZINC000457806032    0.0700
     33 H33        -4.1404    2.0660   56.4314 H       1  ZINC000457806032    0.0900
     34 H34        -5.3317    2.3350   54.3808 H       1  ZINC000457806032    0.0800
     35 H35        -4.7557    3.9678   54.7935 H       1  ZINC000457806032    0.0800
     36 H36        -3.1042    2.3235   52.9854 H       1  ZINC000457806032    0.4000
     37 H37        -2.6185    6.2259   51.1626 H       1  ZINC000457806032    0.1700
     38 H38        -2.1161    0.6237   49.4036 H       1  ZINC000457806032    0.1400
     39 H39        -1.5990   -0.9970   47.6273 H       1  ZINC000457806032    0.1400
     40 H40        -1.3562    2.1741   44.7807 H       1  ZINC000457806032    0.1400
     41 H41        -1.8792    3.8089   46.5424 H       1  ZINC000457806032    0.1300
     42 H42        -3.4331    2.0557   50.4980 H       1  ZINC000457806032    0.1600
@<TRIPOS>BOND
     1     1     2    1
     2     1    25    1
     3     1    26    1
     4     1    27    1
     5     2     3    1
     6     2     4   am
     7     3    28    1
     8     3    29    1
     9     3    30    1
    10     4     5    2
    11     4     6    2
    12     4     7   am
    13     7     8    1
    14     7    31    1
    15     8     9    1
    16     8    32    1
    17     8    33    1
    18     9    10    1
    19     9    34    1
    20     9    35    1
    21    10    11   am
    22    10    36    1
    23    11    12    2
    24    11    13    1
    25    13    24    1
    26    13    14    2
    27    14    15    1
    28    14    37    1
    29    15    16    1
    30    16    17    1
    31    16    24    2
    32    17    23   ar
    33    17    18   ar
    34    18    19   ar
    35    18    38    1
    36    19    20   ar
    37    19    39    1
    38    20    21    1
    39    20    22   ar
    40    22    23   ar
    41    22    40    1
    42    23    41    1
    43    24    42    1
@<TRIPOS>SUBSTRUCTURE
     1 ZINC000457806032        1 TEMP              0 ****  ****    0 ROOT


##########                                Name:    ZINC000548281822
##########                DOCK_Rotatable_Bonds:                   6
##########                         Heavy_Atoms:                  24
##########                    Molecular_Weight:             332.406
##########                DOCK_Rotatable_Bonds:                   6
##########                       Formal_Charge:        -5.58794e-08
##########                     HBond_Acceptors:                   8
##########                        HBond_Donors:                   2
##########                         Heavy_Atoms:                  24
##########                          Grid_Score:          -32.244114
##########                     Grid_vdw_energy:          -32.905521
##########                      Grid_es_energy:            0.661407
##########           Internal_energy_repulsive:            7.325305

@<TRIPOS>MOLECULE
ZINC000548281822
 48 50 1 0 0
SMALL
USER_CHARGES


@<TRIPOS>ATOM
      1 C1         -4.1186    4.8960   53.2074 C.3     1  ZINC000548281822   -0.1700
      2 C2         -3.3570    3.6342   52.7964 C.3     1  ZINC000548281822    0.2600
      3 H3         -4.0675    2.8465   52.5457 H       1  ZINC000548281822    0.1400
      4 N4         -2.5208    3.9269   51.6297 N.am    1  ZINC000548281822   -0.7400
      5 C5         -2.6446    3.1880   50.5094 C.2     1  ZINC000548281822    0.7100
      6 O6         -3.4492    2.2775   50.4674 O.2     1  ZINC000548281822   -0.5700
      7 N7         -1.8763    3.4583   49.4355 N.am    1  ZINC000548281822   -0.7400
      8 C8         -2.0121    2.6562   48.2171 C.3     1  ZINC000548281822    0.1600
      9 H9         -3.0686    2.5262   47.9827 H       1  ZINC000548281822    0.1000
     10 C10        -1.3144    3.3693   47.0551 C.3     1  ZINC000548281822   -0.1400
     11 C11        -1.6526    2.6570   45.7408 C.3     1  ZINC000548281822    0.1100
     12 N12        -1.4014    1.2231   45.9029 N.pl3   1  ZINC000548281822   -0.4600
     13 C13        -1.2594    0.2845   44.9247 C.2     1  ZINC000548281822   -0.0500
     14 C14        -1.0421   -0.8925   45.5460 C.2     1  ZINC000548281822   -0.0300
     15 N15        -1.0525   -0.6725   46.8707 N.2     1  ZINC000548281822   -0.4900
     16 C16        -1.2674    0.5912   47.0930 C.2     1  ZINC000548281822    0.2100
     17 C17        -1.3624    1.2834   48.4324 C.3     1  ZINC000548281822   -0.0500
     18 C18        -2.4850    3.1793   53.9381 C.2     1  ZINC000548281822    0.1700
     19 N19        -1.3230    3.6808   54.2812 N.2     1  ZINC000548281822   -0.4600
     20 C20        -0.9202    2.9653   55.3464 C.2     1  ZINC000548281822    0.1900
     21 C21         0.3628    3.1540   56.1142 C.3     1  ZINC000548281822    0.0200
     22 C22         0.7627    4.6306   56.0840 C.3     1  ZINC000548281822   -0.1400
     23 C23         0.1594    2.7103   57.5642 C.3     1  ZINC000548281822   -0.1400
     24 C24         1.4688    2.3129   55.4738 C.3     1  ZINC000548281822   -0.1400
     25 N25        -1.8406    2.0815   55.5923 N.2     1  ZINC000548281822   -0.3700
     26 O26        -2.7510    2.1915   54.7981 O.3     1  ZINC000548281822    0.0800
     27 H27        -3.4081    5.6837   53.4582 H       1  ZINC000548281822    0.0700
     28 H28        -4.7493    5.2249   52.3816 H       1  ZINC000548281822    0.0900
     29 H29        -4.7408    4.6782   54.0755 H       1  ZINC000548281822    0.0800
     30 H30        -1.8779    4.6525   51.6636 H       1  ZINC000548281822    0.4000
     31 H31        -1.2334    4.1839   49.4694 H       1  ZINC000548281822    0.4000
     32 H32        -1.6555    4.4033   47.0060 H       1  ZINC000548281822    0.1000
     33 H33        -0.2359    3.3496   47.2117 H       1  ZINC000548281822    0.0800
     34 H34        -2.7026    2.8188   45.4973 H       1  ZINC000548281822    0.0900
     35 H35        -1.0251    3.0496   44.9405 H       1  ZINC000548281822    0.1000
     36 H36        -1.3114    0.4510   43.8589 H       1  ZINC000548281822    0.1800
     37 H37        -0.8876   -1.8458   45.0626 H       1  ZINC000548281822    0.1700
     38 H38        -0.3644    1.4110   48.8520 H       1  ZINC000548281822    0.0900
     39 H39        -1.9740    0.6889   49.1110 H       1  ZINC000548281822    0.1000
     40 H40        -0.0253    5.2298   56.5402 H       1  ZINC000548281822    0.0600
     41 H41         1.6906    4.7671   56.6393 H       1  ZINC000548281822    0.0700
     42 H42         0.9075    4.9467   55.0509 H       1  ZINC000548281822    0.0700
     43 H43        -0.1254    1.6584   57.5857 H       1  ZINC000548281822    0.0600
     44 H44         1.0873    2.8469   58.1195 H       1  ZINC000548281822    0.0700
     45 H45        -0.6285    3.3095   58.0205 H       1  ZINC000548281822    0.0600
     46 H46         1.6138    2.6290   54.4407 H       1  ZINC000548281822    0.0700
     47 H47         2.3968    2.4495   56.0291 H       1  ZINC000548281822    0.0700
     48 H48         1.1840    1.2611   55.4953 H       1  ZINC000548281822    0.0600
@<TRIPOS>BOND
     1     1     2    1
     2     1    27    1
     3     1    28    1
     4     1    29    1
     5     2     3    1
     6     2     4    1
     7     2    18    1
     8     4     5   am
     9     4    30    1
    10     5     6    2
    11     5     7   am
    12     7     8    1
    13     7    31    1
    14     8     9    1
    15     8    17    1
    16     8    10    1
    17    10    11    1
    18    10    32    1
    19    10    33    1
    20    11    12    1
    21    11    34    1
    22    11    35    1
    23    12    16    1
    24    12    13    1
    25    13    14    2
    26    13    36    1
    27    14    15    1
    28    14    37    1
    29    15    16    2
    30    16    17    1
    31    17    38    1
    32    17    39    1
    33    18    26    1
    34    18    19    2
    35    19    20    1
    36    20    21    1
    37    20    25    2
    38    21    22    1
    39    21    23    1
    40    21    24    1
    41    22    40    1
    42    22    41    1
    43    22    42    1
    44    23    43    1
    45    23    44    1
    46    23    45    1
    47    24    46    1
    48    24    47    1
    49    24    48    1
    50    25    26    1
@<TRIPOS>SUBSTRUCTURE
     1 ZINC000548281822        1 TEMP              0 ****  ****    0 ROOT


##########                                Name:     oleObject70.pdb
##########                DOCK_Rotatable_Bonds:                   9
##########                         Heavy_Atoms:                  35
##########                    Molecular_Weight:             504.458
##########                DOCK_Rotatable_Bonds:                   9
##########                       Formal_Charge:          0.00010002
##########                     HBond_Acceptors:                   6
##########                        HBond_Donors:                   2
##########                         Heavy_Atoms:                  35
##########                          Grid_Score:          -32.233456
##########                     Grid_vdw_energy:          -32.473976
##########                      Grid_es_energy:            0.240522
##########           Internal_energy_repulsive:           12.994864

@<TRIPOS>MOLECULE
oleObject70.pdb
 62 65 1 0 0
SMALL
NO_CHARGES


@<TRIPOS>ATOM
      1 C          -2.3872    3.1337   54.4651 C.ar    1  UNL        -0.0620
      2 C          -3.2037    4.1905   54.0379 C.ar    1  UNL        -0.0590
      3 C          -4.5440    4.2815   54.4610 C.ar    1  UNL        -0.0456
      4 C          -5.0727    3.2996   55.3373 C.ar    1  UNL        -0.0187
      5 C          -4.2418    2.2337   55.7461 C.ar    1  UNL        -0.0565
      6 C          -2.9090    2.1517   55.3166 C.ar    1  UNL        -0.0619
      7 C          -6.5324    3.3661   55.8209 C.3     1  UNL         0.0909
      8 C          -7.5664    3.0135   54.7376 C.ar    1  UNL         0.0681
      9 C          -8.8689    3.5742   54.7374 C.ar    1  UNL        -0.0272
     10 C          -9.7597    3.1981   53.7141 C.ar    1  UNL        -0.0559
     11 C          -9.3318    2.2917   52.7336 C.ar    1  UNL        -0.0435
     12 C          -8.0234    1.7917   52.8063 C.ar    1  UNL         0.0272
     13 N          -7.1644    2.1454   53.7800 N.ar    1  UNL        -0.2587
     14 C          -9.3334    4.5590   55.8047 C.3     1  UNL        -0.0379
     15 N          -6.7385    2.6856   57.1185 N.am    1  UNL        -0.2987
     16 C          -7.0304    3.2898   58.3352 C.2     1  UNL         0.2437
     17 O          -7.1606    4.4958   58.4563 O.2     1  UNL        -0.2719
     18 C          -7.1940    2.3646   59.5174 C.ar    1  UNL         0.0371
     19 C          -7.2179    0.9589   59.3741 C.ar    1  UNL        -0.0494
     20 C          -7.3702    0.1276   60.4961 C.ar    1  UNL        -0.0570
     21 C          -7.5018    0.6815   61.7802 C.ar    1  UNL        -0.0341
     22 C          -7.4768    2.0777   61.9320 C.ar    1  UNL        -0.0570
     23 C          -7.3255    2.9102   60.8113 C.ar    1  UNL        -0.0494
     24 C          -7.6591   -0.2211   62.9924 C.3     1  UNL         0.0208
     25 N          -8.9557   -0.9101   62.9811 N.4     1  UNL        -0.3086
     26 C         -10.0705   -0.0833   63.4620 C.3     1  UNL         0.0223
     27 C         -11.3963   -0.5290   62.8599 C.ar    1  UNL        -0.0154
     28 C         -11.3946   -1.4404   61.7866 C.ar    1  UNL        -0.0548
     29 C         -12.6031   -1.8717   61.2157 C.ar    1  UNL        -0.0431
     30 C         -13.8241   -1.3944   61.7167 C.ar    1  UNL         0.0421
     31 C         -13.8374   -0.4881   62.7885 C.ar    1  UNL        -0.0245
     32 C         -12.6289   -0.0556   63.3607 C.ar    1  UNL         0.0465
     33 CL        -12.6979    1.0705   64.7041 Cl      1  UNL        -0.0839
     34 CL        -15.3313   -1.9320   61.0066 Cl      1  UNL        -0.0843
     35 C          -5.3926    5.4379   53.9413 C.3     1  UNL        -0.0394
     36 H          -1.3563    3.0711   54.1287 H       1  UNL         0.0623
     37 H          -2.7916    4.9398   53.3678 H       1  UNL         0.0626
     38 H          -4.6274    1.4529   56.3931 H       1  UNL         0.0627
     39 H          -2.2843    1.3242   55.6403 H       1  UNL         0.0623
     40 H          -6.7158    4.4179   56.0597 H       1  UNL         0.0624
     41 H         -10.7684    3.5996   53.6795 H       1  UNL         0.0627
     42 H          -9.9987    1.9827   51.9343 H       1  UNL         0.0639
     43 H          -7.6512    1.0858   52.0651 H       1  UNL         0.0840
     44 H          -9.3683    4.0837   56.7925 H       1  UNL         0.0280
     45 H         -10.3400    4.9396   55.5909 H       1  UNL         0.0280
     46 H          -8.6648    5.4262   55.8650 H       1  UNL         0.0280
     47 H          -6.6514    1.6789   57.1217 H       1  UNL         0.1508
     48 H          -7.1195    0.4938   58.3987 H       1  UNL         0.0631
     49 H          -7.3822   -0.9513   60.3675 H       1  UNL         0.0626
     50 H          -7.5719    2.5199   62.9199 H       1  UNL         0.0626
     51 H          -7.3085    3.9871   60.9547 H       1  UNL         0.0631
     52 H          -7.5668    0.3824   63.9048 H       1  UNL         0.0479
     53 H          -6.8467   -0.9595   62.9996 H       1  UNL         0.0479
     54 H          -8.8916   -1.7498   63.5564 H       1  UNL         0.1229
     55 H          -9.8879    0.9666   63.1984 H       1  UNL         0.0480
     56 H         -10.1318   -0.1366   64.5566 H       1  UNL         0.0480
     57 H         -10.4540   -1.8185   61.3957 H       1  UNL         0.0627
     58 H         -12.5919   -2.5754   60.3882 H       1  UNL         0.0639
     59 H         -14.7836   -0.1224   63.1770 H       1  UNL         0.0654
     60 H          -4.8688    6.0082   53.1639 H       1  UNL         0.0280
     61 H          -5.6422    6.1374   54.7487 H       1  UNL         0.0280
     62 H          -6.3296    5.0759   53.4998 H       1  UNL         0.0280
@<TRIPOS>BOND
     1     1     2   ar
     2     1     6   ar
     3     1    36    1
     4     2     3   ar
     5     2    37    1
     6     3     4   ar
     7     3    35    1
     8     4     5   ar
     9     4     7    1
    10     5     6   ar
    11     5    38    1
    12     6    39    1
    13     7     8    1
    14     7    15    1
    15     7    40    1
    16     8     9   ar
    17     8    13   ar
    18     9    10   ar
    19     9    14    1
    20    10    11   ar
    21    10    41    1
    22    11    12   ar
    23    11    42    1
    24    12    13   ar
    25    12    43    1
    26    14    44    1
    27    14    45    1
    28    14    46    1
    29    15    16   am
    30    15    47    1
    31    16    17    2
    32    16    18    1
    33    18    19   ar
    34    18    23   ar
    35    19    20   ar
    36    19    48    1
    37    20    21   ar
    38    20    49    1
    39    21    22   ar
    40    21    24    1
    41    22    23   ar
    42    22    50    1
    43    23    51    1
    44    24    25    1
    45    24    52    1
    46    24    53    1
    47    25    26    1
    48    25    54    1
    49    26    27    1
    50    26    55    1
    51    26    56    1
    52    27    28   ar
    53    27    32   ar
    54    28    29   ar
    55    28    57    1
    56    29    30   ar
    57    29    58    1
    58    30    31   ar
    59    30    34    1
    60    31    32   ar
    61    31    59    1
    62    32    33    1
    63    35    60    1
    64    35    61    1
    65    35    62    1
@<TRIPOS>SUBSTRUCTURE
     1 UNL         1 TEMP              0 ****  ****    0 ROOT


##########                                Name:    ZINC001105194920
##########                DOCK_Rotatable_Bonds:                   8
##########                         Heavy_Atoms:                  25
##########                    Molecular_Weight:             346.392
##########                DOCK_Rotatable_Bonds:                   8
##########                       Formal_Charge:          -0.0100007
##########                     HBond_Acceptors:                  10
##########                        HBond_Donors:                   3
##########                         Heavy_Atoms:                  25
##########                          Grid_Score:          -32.232132
##########                     Grid_vdw_energy:          -32.846668
##########                      Grid_es_energy:            0.614538
##########           Internal_energy_repulsive:           13.254971

@<TRIPOS>MOLECULE
ZINC001105194920
 47 49 1 0 0
SMALL
USER_CHARGES


@<TRIPOS>ATOM
      1 C1         -1.6610    2.9134   55.5743 C.3     1  ZINC001105194920    0.0300
      2 O2         -2.6636    2.7111   54.5763 O.3     1  ZINC001105194920   -0.3900
      3 C3         -2.5116    3.5412   53.4231 C.3     1  ZINC001105194920    0.0700
      4 C4         -3.6815    3.3038   52.4661 C.3     1  ZINC001105194920    0.0900
      5 H5         -3.6269    2.2897   52.0700 H       1  ZINC001105194920    0.0900
      6 C6         -5.0011    3.4870   53.2185 C.3     1  ZINC001105194920   -0.1800
      7 N7         -3.6115    4.2664   51.3586 N.3     1  ZINC001105194920   -0.6800
      8 C8         -2.3161    4.1843   50.6707 C.3     1  ZINC001105194920    0.1400
      9 C9         -2.1901    2.8428   49.9957 C.2     1  ZINC001105194920   -0.0200
     10 C10        -1.0417    2.2049   49.6698 C.2     1  ZINC001105194920   -0.0200
     11 N11        -1.4096    1.0409   49.0862 N.pl3   1  ZINC001105194920   -0.2800
     12 C12        -0.5005    0.0160   48.5673 C.3     1  ZINC001105194920    0.1000
     13 C13        -1.0519   -0.7404   47.3451 C.3     1  ZINC001105194920    0.1100
     14 N14        -0.3869    0.2948   46.5302 N.am    1  ZINC001105194920   -0.6300
     15 C15        -0.5811    0.7919   45.2926 C.2     1  ZINC001105194920    0.6200
     16 O16        -1.4818    0.3611   44.5990 O.2     1  ZINC001105194920   -0.5400
     17 C17         0.3007    1.8601   44.7788 C.ar    1  ZINC001105194920   -0.0600
     18 N18         1.4133    1.5490   44.1201 N.ar    1  ZINC001105194920   -0.3700
     19 C19         2.1975    2.5042   43.6633 C.ar    1  ZINC001105194920   -0.0200
     20 C20         1.8696    3.8371   43.8655 C.ar    1  ZINC001105194920    0.1500
     21 N21         0.7683    4.1614   44.5182 N.ar    1  ZINC001105194920   -0.5100
     22 C22        -0.0348    3.2093   44.9788 C.ar    1  ZINC001105194920    0.4200
     23 N23        -1.1891    3.5444   45.6624 N.pl3   1  ZINC001105194920   -0.8100
     24 C24         0.5761    0.5672   47.6148 C.3     1  ZINC001105194920    0.1100
     25 N25        -2.6955    0.9888   49.0656 N.2     1  ZINC001105194920   -0.0800
     26 N26        -3.1911    2.0458   49.6057 N.2     1  ZINC001105194920   -0.2600
     27 H27        -1.6923    3.9479   55.9162 H       1  ZINC001105194920    0.0400
     28 H28        -1.8468    2.2466   56.4163 H       1  ZINC001105194920    0.0800
     29 H29        -0.6793    2.6999   55.1515 H       1  ZINC001105194920    0.0400
     30 H30        -2.4981    4.5876   53.7278 H       1  ZINC001105194920    0.0600
     31 H31        -1.5758    3.2969   52.9205 H       1  ZINC001105194920    0.0500
     32 H32        -5.0556    4.5011   53.6146 H       1  ZINC001105194920    0.0700
     33 H33        -5.8346    3.3179   52.5367 H       1  ZINC001105194920    0.0500
     34 H34        -5.0531    2.7727   54.0401 H       1  ZINC001105194920    0.0600
     35 H35        -4.3738    4.1296   50.7119 H       1  ZINC001105194920    0.3500
     36 H36        -2.2509    4.9749   49.9232 H       1  ZINC001105194920    0.0900
     37 H37        -1.5114    4.3029   51.3963 H       1  ZINC001105194920    0.0500
     38 H38        -0.0343    2.5548   49.8408 H       1  ZINC001105194920    0.1800
     39 H39        -0.1049   -0.6353   49.3467 H       1  ZINC001105194920    0.1500
     40 H40        -0.6301   -1.7374   47.2185 H       1  ZINC001105194920    0.1200
     41 H41        -2.1395   -0.7249   47.2729 H       1  ZINC001105194920    0.1000
     42 H42         3.1005    2.2482   43.1290 H       1  ZINC001105194920    0.1800
     43 H43         2.5184    4.6134   43.4875 H       1  ZINC001105194920    0.1800
     44 H44        -1.4544    4.4742   45.7396 H       1  ZINC001105194920    0.4000
     45 H45        -1.7336    2.8497   46.0646 H       1  ZINC001105194920    0.4300
     46 H46         0.7884    1.6267   47.7580 H       1  ZINC001105194920    0.1100
     47 H47         1.4762   -0.0457   47.5673 H       1  ZINC001105194920    0.1200
@<TRIPOS>BOND
     1     1     2    1
     2     1    27    1
     3     1    28    1
     4     1    29    1
     5     2     3    1
     6     3     4    1
     7     3    30    1
     8     3    31    1
     9     4     5    1
    10     4     6    1
    11     4     7    1
    12     6    32    1
    13     6    33    1
    14     6    34    1
    15     7     8    1
    16     7    35    1
    17     8     9    1
    18     8    36    1
    19     8    37    1
    20     9    26    1
    21     9    10    2
    22    10    11    1
    23    10    38    1
    24    11    12    1
    25    11    25    1
    26    12    24    1
    27    12    13    1
    28    12    39    1
    29    13    14    1
    30    13    40    1
    31    13    41    1
    32    14    15   am
    33    14    24    1
    34    15    16    2
    35    15    17    1
    36    17    22   ar
    37    17    18   ar
    38    18    19   ar
    39    19    20   ar
    40    19    42    1
    41    20    21   ar
    42    20    43    1
    43    21    22   ar
    44    22    23    1
    45    23    44    1
    46    23    45    1
    47    24    46    1
    48    24    47    1
    49    25    26    2
@<TRIPOS>SUBSTRUCTURE
     1 ZINC001105194920        1 TEMP              0 ****  ****    0 ROOT


##########                                Name:    ZINC000328606936
##########                DOCK_Rotatable_Bonds:                   6
##########                         Heavy_Atoms:                  23
##########                    Molecular_Weight:             338.428
##########                DOCK_Rotatable_Bonds:                   6
##########                       Formal_Charge:           0.0100001
##########                     HBond_Acceptors:                   7
##########                        HBond_Donors:                   2
##########                         Heavy_Atoms:                  23
##########                          Grid_Score:          -32.228779
##########                     Grid_vdw_energy:          -30.646954
##########                      Grid_es_energy:           -1.581823
##########           Internal_energy_repulsive:            5.204975

@<TRIPOS>MOLECULE
ZINC000328606936
 45 47 1 0 0
SMALL
USER_CHARGES


@<TRIPOS>ATOM
      1 C1         -0.8121    3.7600   45.2085 C.3     1  <0>        -0.0500
      2 N2         -1.0626    2.5558   46.0116 N.4     1  <0>        -0.3500
      3 H3         -0.1826    2.1433   46.2831 H       1  <0>         0.4200
      4 C4         -1.8321    1.5889   45.2174 C.3     1  <0>        -0.0900
      5 C5         -0.9863    0.3700   44.9526 C.2     1  <0>         0.4900
      6 O6         -0.2835    0.3203   43.9576 O.co2   1  <0>        -0.6700
      7 O7         -1.0048   -0.5662   45.7334 O.co2   1  <0>        -0.6400
      8 C8         -1.8248    2.9187   47.2139 C.3     1  <0>         0.0100
      9 H9         -2.8512    3.1722   46.9487 H       1  <0>         0.1600
     10 C10        -1.1501    4.1023   47.9400 C.3     1  <0>         0.1000
     11 N11        -1.3297    3.8083   49.3809 N.am    1  <0>        -0.6200
     12 C12        -1.6217    4.6745   50.3713 C.2     1  <0>         0.6200
     13 O13        -1.7689    5.8567   50.1221 O.2     1  <0>        -0.5100
     14 C14        -1.7618    4.1928   51.7486 C.2     1  <0>        -0.2800
     15 C15        -2.9381    3.8932   52.3645 C.2     1  <0>        -0.0300
     16 C16        -2.7973    3.4576   53.6694 C.2     1  <0>        -0.1200
     17 C17        -1.5149    3.4086   54.0958 C.2     1  <0>        -0.1900
     18 C18        -1.0910    2.9653   55.4835 C.3     1  <0>        -0.0500
     19 C19        -2.3134    2.9952   56.4046 C.3     1  <0>        -0.1200
     20 C20        -3.4646    2.2440   55.7295 C.3     1  <0>        -0.1200
     21 C21        -3.9792    3.0683   54.5480 C.3     1  <0>        -0.0600
     22 S22        -0.4384    3.9026   52.8658 S.3     1  <0>         0.2000
     23 C23        -1.1156    2.3462   49.4861 C.3     1  <0>         0.0600
     24 C24        -1.8044    1.7597   48.2320 C.3     1  <0>         0.0800
     25 H25        -1.2281    0.9216   47.8403 H       1  <0>         0.1000
     26 O26        -3.1351    1.3434   48.5450 O.3     1  <0>        -0.5400
     27 H27        -1.7626    4.2055   44.9153 H       1  <0>         0.1100
     28 H28        -0.2410    4.4774   45.7980 H       1  <0>         0.1100
     29 H29        -0.2465    3.4906   44.3165 H       1  <0>         0.1600
     30 H30        -2.7271    1.2975   45.7670 H       1  <0>         0.1200
     31 H31        -2.1199    2.0442   44.2697 H       1  <0>         0.1300
     32 H32        -0.0900    4.1469   47.6905 H       1  <0>         0.1000
     33 H33        -1.6426    5.0390   47.6790 H       1  <0>         0.1200
     34 H34        -3.8972    3.9879   51.8771 H       1  <0>         0.1500
     35 H35        -0.6925    1.9517   55.4376 H       1  <0>         0.0900
     36 H36        -0.3281    3.6431   55.8665 H       1  <0>         0.0800
     37 H37        -2.0687    2.5132   57.3511 H       1  <0>         0.0700
     38 H38        -2.6086    4.0287   56.5854 H       1  <0>         0.0700
     39 H39        -3.1089    1.2775   55.3723 H       1  <0>         0.0700
     40 H40        -4.2713    2.0934   56.4469 H       1  <0>         0.0700
     41 H41        -4.4727    3.9674   54.9171 H       1  <0>         0.0800
     42 H42        -4.6849    2.4740   53.9676 H       1  <0>         0.0800
     43 H43        -0.0502    2.1165   49.4780 H       1  <0>         0.1000
     44 H44        -1.5821    1.9579   50.3915 H       1  <0>         0.1000
     45 H45        -3.2200    0.9124   49.4066 H       1  <0>         0.4000
@<TRIPOS>BOND
     1     1     2    1
     2     1    27    1
     3     1    28    1
     4     1    29    1
     5     2     3    1
     6     2     4    1
     7     2     8    1
     8     4     5    1
     9     4    30    1
    10     4    31    1
    11     5     6   ar
    12     5     7   ar
    13     8     9    1
    14     8    24    1
    15     8    10    1
    16    10    11    1
    17    10    32    1
    18    10    33    1
    19    11    12   am
    20    11    23    1
    21    12    13    2
    22    12    14    1
    23    14    22    1
    24    14    15    2
    25    15    16    1
    26    15    34    1
    27    16    21    1
    28    16    17    2
    29    17    18    1
    30    17    22    1
    31    18    19    1
    32    18    35    1
    33    18    36    1
    34    19    20    1
    35    19    37    1
    36    19    38    1
    37    20    21    1
    38    20    39    1
    39    20    40    1
    40    21    41    1
    41    21    42    1
    42    23    24    1
    43    23    43    1
    44    23    44    1
    45    24    25    1
    46    24    26    1
    47    26    45    1
@<TRIPOS>SUBSTRUCTURE
     1 <0>         1 TEMP              0 ****  ****    0 ROOT


##########                                Name:    ZINC000279331220
##########                DOCK_Rotatable_Bonds:                   9
##########                         Heavy_Atoms:                  24
##########                    Molecular_Weight:             328.411
##########                DOCK_Rotatable_Bonds:                   9
##########                       Formal_Charge:          -0.0100001
##########                     HBond_Acceptors:                   5
##########                        HBond_Donors:                   0
##########                         Heavy_Atoms:                  24
##########                          Grid_Score:          -32.217777
##########                     Grid_vdw_energy:          -31.875334
##########                      Grid_es_energy:           -0.342444
##########           Internal_energy_repulsive:           16.906662

@<TRIPOS>MOLECULE
ZINC000279331220
 48 49 1 0 0
SMALL
USER_CHARGES


@<TRIPOS>ATOM
      1 C1         -0.1315    2.6681   55.6994 C.3     1  ZINC000279331220   -0.1500
      2 C2         -0.0136    3.6647   54.5446 C.3     1  ZINC000279331220    0.0500
      3 O3          0.2538    2.9585   53.3314 O.3     1  ZINC000279331220   -0.3000
      4 C4          1.4603    3.1767   52.7429 C.ar    1  ZINC000279331220    0.1000
      5 C5          2.6292    2.9393   53.4475 C.ar    1  ZINC000279331220   -0.1700
      6 C6          3.8552    3.1612   52.8476 C.ar    1  ZINC000279331220   -0.1200
      7 C7          3.9178    3.6201   51.5453 C.ar    1  ZINC000279331220   -0.1200
      8 C8          2.7548    3.8594   50.8366 C.ar    1  ZINC000279331220   -0.1700
      9 C9          1.5234    3.6333   51.4296 C.ar    1  ZINC000279331220    0.1000
     10 O10         0.3788    3.8682   50.7340 O.3     1  ZINC000279331220   -0.3000
     11 C11        -0.4932    2.7556   50.5247 C.3     1  ZINC000279331220    0.0600
     12 C12        -1.0997    2.8395   49.1225 C.3     1  ZINC000279331220   -0.1100
     13 C13        -1.7362    1.4961   48.7609 C.3     1  ZINC000279331220   -0.1300
     14 C14        -1.8575    1.3847   47.2629 C.2     1  ZINC000279331220    0.5200
     15 O15        -2.6918    2.0369   46.6719 O.2     1  ZINC000279331220   -0.5200
     16 N16        -1.0388    0.5602   46.5800 N.am    1  ZINC000279331220   -0.5700
     17 C17        -1.1557    0.4533   45.1235 C.3     1  ZINC000279331220    0.0800
     18 C18        -0.0808   -0.1908   47.2594 C.ar    1  ZINC000279331220    0.3400
     19 N19        -0.4302   -1.3267   47.8418 N.ar    1  ZINC000279331220   -0.4800
     20 C20         0.4449   -2.0675   48.4946 C.ar    1  ZINC000279331220    0.1100
     21 C21         1.7665   -1.6801   48.5935 C.ar    1  ZINC000279331220   -0.1600
     22 C22         2.1738   -0.4947   47.9963 C.ar    1  ZINC000279331220   -0.0700
     23 C23         1.2342    0.2576   47.3140 C.ar    1  ZINC000279331220   -0.1200
     24 C24         1.6282    1.5512   46.6489 C.3     1  ZINC000279331220   -0.1100
     25 H25        -0.3355    3.2067   56.6247 H       1  ZINC000279331220    0.0800
     26 H26        -0.9458    1.9722   55.4970 H       1  ZINC000279331220    0.0700
     27 H27         0.8025    2.1152   55.7991 H       1  ZINC000279331220    0.0700
     28 H28        -0.9476    4.2176   54.4448 H       1  ZINC000279331220    0.0600
     29 H29         0.8007    4.3606   54.7468 H       1  ZINC000279331220    0.0600
     30 H30         2.5830    2.5813   54.4654 H       1  ZINC000279331220    0.1300
     31 H31         4.7658    2.9758   53.3978 H       1  ZINC000279331220    0.1300
     32 H32         4.8774    3.7924   51.0804 H       1  ZINC000279331220    0.1300
     33 H33         2.8066    4.2186   49.8194 H       1  ZINC000279331220    0.1300
     34 H34         0.0714    1.8282   50.6215 H       1  ZINC000279331220    0.0600
     35 H35        -1.2909    2.7744   51.2673 H       1  ZINC000279331220    0.0600
     36 H36        -1.8608    3.6195   49.1019 H       1  ZINC000279331220    0.0800
     37 H37        -0.3170    3.0765   48.4018 H       1  ZINC000279331220    0.0800
     38 H38        -1.1118    0.6854   49.1362 H       1  ZINC000279331220    0.1000
     39 H39        -2.7266    1.4303   49.2115 H       1  ZINC000279331220    0.1000
     40 H40        -0.5800    1.2506   44.6534 H       1  ZINC000279331220    0.0700
     41 H41        -0.7708   -0.5132   44.7981 H       1  ZINC000279331220    0.0800
     42 H42        -2.2031    0.5430   44.8355 H       1  ZINC000279331220    0.0800
     43 H43         0.1234   -2.9885   48.9579 H       1  ZINC000279331220    0.1600
     44 H44         2.4759   -2.2925   49.1302 H       1  ZINC000279331220    0.1400
     45 H45         3.2018   -0.1695   48.0591 H       1  ZINC000279331220    0.1400
     46 H46         1.8553    1.3655   45.5990 H       1  ZINC000279331220    0.0800
     47 H47         0.8058    2.2627   46.7224 H       1  ZINC000279331220    0.0700
     48 H48         2.5086    1.9608   47.1440 H       1  ZINC000279331220    0.0700
@<TRIPOS>BOND
     1     1     2    1
     2     1    25    1
     3     1    26    1
     4     1    27    1
     5     2     3    1
     6     2    28    1
     7     2    29    1
     8     3     4    1
     9     4     9   ar
    10     4     5   ar
    11     5     6   ar
    12     5    30    1
    13     6     7   ar
    14     6    31    1
    15     7     8   ar
    16     7    32    1
    17     8     9   ar
    18     8    33    1
    19     9    10    1
    20    10    11    1
    21    11    12    1
    22    11    34    1
    23    11    35    1
    24    12    13    1
    25    12    36    1
    26    12    37    1
    27    13    14    1
    28    13    38    1
    29    13    39    1
    30    14    15    2
    31    14    16   am
    32    16    17    1
    33    16    18    1
    34    17    40    1
    35    17    41    1
    36    17    42    1
    37    18    23   ar
    38    18    19   ar
    39    19    20   ar
    40    20    21   ar
    41    20    43    1
    42    21    22   ar
    43    21    44    1
    44    22    23   ar
    45    22    45    1
    46    23    24    1
    47    24    46    1
    48    24    47    1
    49    24    48    1
@<TRIPOS>SUBSTRUCTURE
     1 ZINC000279331220        1 TEMP              0 ****  ****    0 ROOT


##########                                Name:    ZINC001492779707
##########                DOCK_Rotatable_Bonds:                   8
##########                         Heavy_Atoms:                  27
##########                    Molecular_Weight:             374.483
##########                DOCK_Rotatable_Bonds:                   8
##########                       Formal_Charge:           0.0199998
##########                     HBond_Acceptors:                   7
##########                        HBond_Donors:                   0
##########                         Heavy_Atoms:                  27
##########                          Grid_Score:          -32.195538
##########                     Grid_vdw_energy:          -31.407856
##########                      Grid_es_energy:           -0.787681
##########           Internal_energy_repulsive:           11.258482

@<TRIPOS>MOLECULE
ZINC001492779707
 57 59 1 0 0
SMALL
USER_CHARGES


@<TRIPOS>ATOM
      1 C1          1.5387   -2.2504   48.7597 C.3     1  ZINC001492779707   -0.0700
      2 C2          0.4121   -1.4254   48.1931 C.2     1  ZINC001492779707    0.1800
      3 N3         -0.8605   -1.6897   48.2850 N.2     1  ZINC001492779707   -0.2900
      4 N4         -1.5439   -0.7783   47.6897 N.2     1  ZINC001492779707   -0.3100
      5 C5         -0.7373    0.1237   47.1822 C.2     1  ZINC001492779707    0.3400
      6 N6         -1.1084    1.2535   46.4705 N.3     1  ZINC001492779707   -0.4600
      7 C7         -1.3474    0.9307   45.0574 C.3     1  ZINC001492779707    0.0300
      8 C8         -2.2876    1.8906   47.0717 C.3     1  ZINC001492779707    0.1100
      9 C9         -1.8761    3.1738   47.7464 C.ar    1  ZINC001492779707   -0.0400
     10 C10        -1.2503    4.1676   47.0171 C.ar    1  ZINC001492779707   -0.1300
     11 C11        -0.8714    5.3463   47.6333 C.ar    1  ZINC001492779707   -0.0800
     12 C12        -1.1176    5.5333   48.9794 C.ar    1  ZINC001492779707   -0.2100
     13 C13        -1.7455    4.5373   49.7136 C.ar    1  ZINC001492779707    0.1300
     14 O14        -1.9892    4.7190   51.0382 O.3     1  ZINC001492779707   -0.3100
     15 C15        -1.2121    3.9436   51.9532 C.3     1  ZINC001492779707    0.0800
     16 C16         0.1689    4.5814   52.1171 C.3     1  ZINC001492779707   -0.1500
     17 C17        -1.9173    3.8982   53.3102 C.3     1  ZINC001492779707   -0.1800
     18 C18        -2.1296    3.3583   49.0920 C.ar    1  ZINC001492779707   -0.1400
     19 N19         0.5355   -0.2577   47.4924 N.pl3   1  ZINC001492779707   -0.4600
     20 C20         1.7773    0.4349   47.1395 C.3     1  ZINC001492779707    0.1200
     21 C21         1.7856    1.8248   47.7792 C.3     1  ZINC001492779707   -0.1200
     22 C22         3.2276    2.3212   47.9015 C.3     1  ZINC001492779707    0.0600
     23 H23         3.6790    2.3771   46.9110 H       1  ZINC001492779707    0.0800
     24 C24         3.2378    3.7096   48.5478 C.3     1  ZINC001492779707    0.0300
     25 O25         4.5923    4.1183   48.7606 O.3     1  ZINC001492779707   -0.3800
     26 C26         5.3414    3.2145   49.5784 C.3     1  ZINC001492779707    0.0200
     27 C27         5.3313    1.8261   48.9322 C.3     1  ZINC001492779707    0.0300
     28 O28         3.9771    1.4165   48.7182 O.3     1  ZINC001492779707   -0.3800
     29 H29         1.7586   -1.9171   49.7740 H       1  ZINC001492779707    0.0900
     30 H30         1.2469   -3.3005   48.7775 H       1  ZINC001492779707    0.1000
     31 H31         2.4256   -2.1303   48.1375 H       1  ZINC001492779707    0.0800
     32 H32        -2.2168    0.2783   44.9758 H       1  ZINC001492779707    0.0500
     33 H33        -1.5294    1.8498   44.5005 H       1  ZINC001492779707    0.0900
     34 H34        -0.4735    0.4244   44.6476 H       1  ZINC001492779707    0.0700
     35 H35        -3.0196    2.1077   46.2938 H       1  ZINC001492779707    0.0700
     36 H36        -2.7283    1.2182   47.8077 H       1  ZINC001492779707    0.0900
     37 H37        -1.0567    4.0232   45.9645 H       1  ZINC001492779707    0.1200
     38 H38        -0.3824    6.1210   47.0615 H       1  ZINC001492779707    0.1300
     39 H39        -0.8212    6.4538   49.4604 H       1  ZINC001492779707    0.1300
     40 H40        -1.1008    2.9304   51.5674 H       1  ZINC001492779707    0.0700
     41 H41         0.0577    5.5948   52.5029 H       1  ZINC001492779707    0.0700
     42 H42         0.7617    3.9901   52.8150 H       1  ZINC001492779707    0.0800
     43 H43         0.6712    4.6139   51.1503 H       1  ZINC001492779707    0.0700
     44 H44        -2.9012    3.4439   53.1934 H       1  ZINC001492779707    0.0600
     45 H45        -1.3244    3.3067   54.0080 H       1  ZINC001492779707    0.0700
     46 H46        -2.0286    4.9115   53.6960 H       1  ZINC001492779707    0.0700
     47 H47        -2.6185    2.5815   49.6613 H       1  ZINC001492779707    0.1300
     48 H48         2.6294   -0.1383   47.5047 H       1  ZINC001492779707    0.1000
     49 H49         1.8431    0.5332   46.0560 H       1  ZINC001492779707    0.1000
     50 H50         1.2154    2.5145   47.1569 H       1  ZINC001492779707    0.0900
     51 H51         1.3344    1.7714   48.7699 H       1  ZINC001492779707    0.0800
     52 H52         2.7416    4.4219   47.8885 H       1  ZINC001492779707    0.1100
     53 H53         2.7147    3.6705   49.5032 H       1  ZINC001492779707    0.0600
     54 H54         6.3688    3.5682   49.6656 H       1  ZINC001492779707    0.1100
     55 H55         4.8891    3.1588   50.5685 H       1  ZINC001492779707    0.0600
     56 H56         5.8544    1.8651   47.9767 H       1  ZINC001492779707    0.0600
     57 H57         5.8274    1.1138   49.5914 H       1  ZINC001492779707    0.1100
@<TRIPOS>BOND
     1     1     2    1
     2     1    29    1
     3     1    30    1
     4     1    31    1
     5     2    19    1
     6     2     3    2
     7     3     4    1
     8     4     5    2
     9     5     6    1
    10     5    19    1
    11     6     7    1
    12     6     8    1
    13     7    32    1
    14     7    33    1
    15     7    34    1
    16     8     9    1
    17     8    35    1
    18     8    36    1
    19     9    18   ar
    20     9    10   ar
    21    10    11   ar
    22    10    37    1
    23    11    12   ar
    24    11    38    1
    25    12    13   ar
    26    12    39    1
    27    13    14    1
    28    13    18   ar
    29    14    15    1
    30    15    16    1
    31    15    17    1
    32    15    40    1
    33    16    41    1
    34    16    42    1
    35    16    43    1
    36    17    44    1
    37    17    45    1
    38    17    46    1
    39    18    47    1
    40    19    20    1
    41    20    21    1
    42    20    48    1
    43    20    49    1
    44    21    22    1
    45    21    50    1
    46    21    51    1
    47    22    23    1
    48    22    28    1
    49    22    24    1
    50    24    25    1
    51    24    52    1
    52    24    53    1
    53    25    26    1
    54    26    27    1
    55    26    54    1
    56    26    55    1
    57    27    28    1
    58    27    56    1
    59    27    57    1
@<TRIPOS>SUBSTRUCTURE
     1 ZINC001492779707        1 TEMP              0 ****  ****    0 ROOT


##########                                Name:    ZINC000623695407
##########                DOCK_Rotatable_Bonds:                  10
##########                         Heavy_Atoms:                  27
##########                    Molecular_Weight:             368.479
##########                DOCK_Rotatable_Bonds:                  10
##########                       Formal_Charge:           0.0299989
##########                     HBond_Acceptors:                   6
##########                        HBond_Donors:                   2
##########                         Heavy_Atoms:                  27
##########                          Grid_Score:          -32.193489
##########                     Grid_vdw_energy:          -30.751823
##########                      Grid_es_energy:           -1.441665
##########           Internal_energy_repulsive:           11.267137

@<TRIPOS>MOLECULE
ZINC000623695407
 55 57 1 0 0
SMALL
USER_CHARGES


@<TRIPOS>ATOM
      1 C1        -13.9830    0.8324   63.0188 C.3     1  ZINC000623695407    0.0300
      2 O2        -15.2377    0.1800   62.8134 O.3     1  ZINC000623695407   -0.3200
      3 C3        -15.3023   -0.7301   61.8061 C.ar    1  ZINC000623695407    0.1300
      4 C4        -15.6143   -0.3200   60.5181 C.ar    1  ZINC000623695407   -0.2100
      5 C5        -15.6787   -1.2470   59.4959 C.ar    1  ZINC000623695407   -0.0600
      6 C6        -15.4330   -2.5826   59.7558 C.ar    1  ZINC000623695407   -0.1100
      7 C7        -15.5045   -3.5918   58.6389 C.3     1  ZINC000623695407    0.0600
      8 N8        -14.1512   -3.8607   58.1346 N.3     1  ZINC000623695407   -0.4600
      9 C9        -14.1385   -5.0510   57.2640 C.3     1  ZINC000623695407    0.0000
     10 C10       -13.1889   -4.2886   56.3293 C.3     1  ZINC000623695407   -0.1300
     11 C11       -13.8631   -3.0504   56.9364 C.3     1  ZINC000623695407    0.0100
     12 H12       -14.7580   -2.7359   56.3993 H       1  ZINC000623695407    0.0900
     13 C13       -12.8941   -1.8957   57.1986 C.3     1  ZINC000623695407    0.1600
     14 N14       -11.8377   -2.3420   58.1103 N.am    1  ZINC000623695407   -0.7400
     15 C15       -11.2739   -1.4682   58.9675 C.2     1  ZINC000623695407    0.7100
     16 O16       -11.6408   -0.3091   58.9833 O.2     1  ZINC000623695407   -0.5900
     17 N17       -10.3032   -1.8793   59.8074 N.am    1  ZINC000623695407   -0.7400
     18 C18        -9.6915   -0.9297   60.7405 C.3     1  ZINC000623695407    0.1700
     19 H19        -9.8832    0.0881   60.4009 H       1  ZINC000623695407    0.0900
     20 C20       -10.2932   -1.1244   62.1337 C.3     1  ZINC000623695407   -0.1600
     21 C21        -8.1820   -1.1723   60.7984 C.3     1  ZINC000623695407   -0.0900
     22 C22        -7.5430   -0.1492   61.7016 C.ar    1  ZINC000623695407   -0.0300
     23 C23        -7.1870   -0.4739   63.0017 C.ar    1  ZINC000623695407   -0.1700
     24 C24        -6.6031    0.4907   63.8009 C.ar    1  ZINC000623695407    0.1000
     25 N25        -6.3848    1.7068   63.3401 N.ar    1  ZINC000623695407   -0.4900
     26 C26        -6.7103    2.0509   62.1094 C.ar    1  ZINC000623695407    0.1000
     27 C27        -7.2921    1.1377   61.2506 C.ar    1  ZINC000623695407   -0.1700
     28 C28       -15.1214   -2.9937   61.0386 C.ar    1  ZINC000623695407   -0.0700
     29 C29       -15.0506   -2.0700   62.0632 C.ar    1  ZINC000623695407   -0.1500
     30 H30       -14.0690    1.5316   63.8506 H       1  ZINC000623695407    0.1000
     31 H31       -13.2197    0.0885   63.2470 H       1  ZINC000623695407    0.0600
     32 H32       -13.7033    1.3748   62.1157 H       1  ZINC000623695407    0.0600
     33 H33       -15.8069    0.7230   60.3148 H       1  ZINC000623695407    0.1300
     34 H34       -15.9216   -0.9282   58.4929 H       1  ZINC000623695407    0.1200
     35 H35       -15.9435   -4.5169   59.0126 H       1  ZINC000623695407    0.0600
     36 H36       -16.1213   -3.1972   57.8315 H       1  ZINC000623695407    0.0700
     37 H37       -13.6814   -5.9244   57.7292 H       1  ZINC000623695407    0.0900
     38 H38       -15.1069   -5.2705   56.8143 H       1  ZINC000623695407    0.0700
     39 H39       -12.1340   -4.3924   56.5835 H       1  ZINC000623695407    0.1000
     40 H40       -13.3946   -4.4341   55.2688 H       1  ZINC000623695407    0.0800
     41 H41       -12.4493   -1.5737   56.2569 H       1  ZINC000623695407    0.0700
     42 H42       -13.4346   -1.0629   57.6486 H       1  ZINC000623695407    0.0700
     43 H43       -11.5442   -3.2664   58.0969 H       1  ZINC000623695407    0.3900
     44 H44       -10.0096   -2.8036   59.7940 H       1  ZINC000623695407    0.3900
     45 H45        -9.8380   -0.4180   62.8279 H       1  ZINC000623695407    0.0700
     46 H46       -11.3686   -0.9515   62.0924 H       1  ZINC000623695407    0.0700
     47 H47       -10.1015   -2.1423   62.4732 H       1  ZINC000623695407    0.0600
     48 H48        -7.9893   -2.1719   61.1881 H       1  ZINC000623695407    0.1000
     49 H49        -7.7613   -1.0857   59.7965 H       1  ZINC000623695407    0.0800
     50 H50        -7.3639   -1.4679   63.3851 H       1  ZINC000623695407    0.1300
     51 H51        -6.3228    0.2458   64.8148 H       1  ZINC000623695407    0.1500
     52 H52        -6.5163    3.0568   61.7674 H       1  ZINC000623695407    0.1600
     53 H53        -7.5563    1.4253   60.2436 H       1  ZINC000623695407    0.1400
     54 H54       -14.9296   -4.0376   61.2389 H       1  ZINC000623695407    0.1200
     55 H55       -14.8071   -2.3916   63.0650 H       1  ZINC000623695407    0.1300
@<TRIPOS>BOND
     1     1     2    1
     2     1    30    1
     3     1    31    1
     4     1    32    1
     5     2     3    1
     6     3    29   ar
     7     3     4   ar
     8     4     5   ar
     9     4    33    1
    10     5     6   ar
    11     5    34    1
    12     6     7    1
    13     6    28   ar
    14     7     8    1
    15     7    35    1
    16     7    36    1
    17     8    11    1
    18     8     9    1
    19     9    10    1
    20     9    37    1
    21     9    38    1
    22    10    11    1
    23    10    39    1
    24    10    40    1
    25    11    12    1
    26    11    13    1
    27    13    14    1
    28    13    41    1
    29    13    42    1
    30    14    15   am
    31    14    43    1
    32    15    16    2
    33    15    17   am
    34    17    18    1
    35    17    44    1
    36    18    19    1
    37    18    20    1
    38    18    21    1
    39    20    45    1
    40    20    46    1
    41    20    47    1
    42    21    22    1
    43    21    48    1
    44    21    49    1
    45    22    27   ar
    46    22    23   ar
    47    23    24   ar
    48    23    50    1
    49    24    25   ar
    50    24    51    1
    51    25    26   ar
    52    26    27   ar
    53    26    52    1
    54    27    53    1
    55    28    29   ar
    56    28    54    1
    57    29    55    1
@<TRIPOS>SUBSTRUCTURE
     1 ZINC000623695407        1 TEMP              0 ****  ****    0 ROOT


##########                                Name:    ZINC000538774026
##########                DOCK_Rotatable_Bonds:                  10
##########                         Heavy_Atoms:                  29
##########                    Molecular_Weight:             414.496
##########                DOCK_Rotatable_Bonds:                  10
##########                       Formal_Charge:            0.049999
##########                     HBond_Acceptors:                   9
##########                        HBond_Donors:                   2
##########                         Heavy_Atoms:                  29
##########                          Grid_Score:          -32.176716
##########                     Grid_vdw_energy:          -31.148478
##########                      Grid_es_energy:           -1.028238
##########           Internal_energy_repulsive:           21.976574

@<TRIPOS>MOLECULE
ZINC000538774026
 61 62 1 0 0
SMALL
USER_CHARGES


@<TRIPOS>ATOM
      1 C1          0.1456    4.7827   50.4211 C.3     1  ZINC000538774026   -0.1500
      2 C2         -0.3793    3.8825   51.5415 C.3     1  ZINC000538774026   -0.1100
      3 C3          0.7018    2.8735   51.9338 C.3     1  ZINC000538774026   -0.1400
      4 C4         -0.7422    4.7392   52.7561 C.3     1  ZINC000538774026    0.1400
      5 N5         -1.3282    3.8894   53.7957 N.pl3   1  ZINC000538774026   -0.3400
      6 N6         -0.6567    3.3652   54.9076 N.2     1  ZINC000538774026   -0.2500
      7 C7         -1.5071    2.6588   55.6075 C.2     1  ZINC000538774026    0.0500
      8 C8         -2.7534    2.7069   54.9665 C.2     1  ZINC000538774026    0.0800
      9 N9         -3.9348    2.0756   55.4018 N.am    1  ZINC000538774026   -0.6600
     10 C10        -4.8917    2.7921   56.0244 C.2     1  ZINC000538774026    0.7100
     11 O11        -4.7344    3.9833   56.2114 O.2     1  ZINC000538774026   -0.5700
     12 N12        -6.0228    2.1884   56.4395 N.am    1  ZINC000538774026   -0.7300
     13 C13        -7.0621    2.9669   57.1178 C.3     1  ZINC000538774026    0.1600
     14 C14        -8.4407    2.4718   56.6753 C.3     1  ZINC000538774026   -0.1300
     15 C15        -8.5922    0.9933   57.0385 C.3     1  ZINC000538774026   -0.1000
     16 C16        -8.4508    0.8229   58.5524 C.3     1  ZINC000538774026   -0.0800
     17 C17        -8.6002   -0.6335   58.9100 C.2     1  ZINC000538774026    0.4700
     18 O18        -7.6675   -1.2378   59.3842 O.2     1  ZINC000538774026   -0.5000
     19 O19        -9.7693   -1.2592   58.7020 O.3     1  ZINC000538774026   -0.3500
     20 C20       -10.5356   -1.6324   59.8775 C.3     1  ZINC000538774026    0.1200
     21 C21       -12.0017   -1.8325   59.4883 C.3     1  ZINC000538774026   -0.1800
     22 C22        -9.9793   -2.9347   60.4566 C.3     1  ZINC000538774026   -0.1400
     23 C23       -10.4332   -0.5231   60.9263 C.3     1  ZINC000538774026   -0.1800
     24 C24        -7.0724    1.3179   58.9948 C.3     1  ZINC000538774026   -0.1100
     25 C25        -6.9208    2.7964   58.6317 C.3     1  ZINC000538774026   -0.1300
     26 C26        -2.6205    3.4749   53.8552 C.2     1  ZINC000538774026   -0.0500
     27 C27        -3.7069    3.8009   52.8630 C.3     1  ZINC000538774026    0.3500
     28 F28        -4.5641    2.7031   52.7325 F       1  ZINC000538774026   -0.1900
     29 F29        -4.4330    4.9086   53.3138 F       1  ZINC000538774026   -0.1900
     30 H30         0.4042    4.1724   49.5558 H       1  ZINC000538774026    0.0600
     31 H31        -0.6246    5.5015   50.1417 H       1  ZINC000538774026    0.0600
     32 H32         1.0311    5.3153   50.7678 H       1  ZINC000538774026    0.0600
     33 H33        -1.2649    3.3499   51.1949 H       1  ZINC000538774026    0.0800
     34 H34         1.5874    3.4061   52.2804 H       1  ZINC000538774026    0.0600
     35 H35         0.3279    2.2323   52.7321 H       1  ZINC000538774026    0.0600
     36 H36         0.9604    2.2632   51.0685 H       1  ZINC000538774026    0.0600
     37 H37         0.1564    5.2196   53.1433 H       1  ZINC000538774026    0.1000
     38 H38        -1.4632    5.5014   52.4608 H       1  ZINC000538774026    0.1000
     39 H39        -1.2867    2.1289   56.5223 H       1  ZINC000538774026    0.2100
     40 H40        -4.0598    1.1252   55.2537 H       1  ZINC000538774026    0.4100
     41 H41        -6.1489    1.2384   56.2892 H       1  ZINC000538774026    0.4000
     42 H42        -6.9542    4.0202   56.8591 H       1  ZINC000538774026    0.1000
     43 H43        -9.2139    3.0510   57.1800 H       1  ZINC000538774026    0.0800
     44 H44        -8.5414    2.5932   55.5969 H       1  ZINC000538774026    0.0800
     45 H45        -9.5743    0.6406   56.7233 H       1  ZINC000538774026    0.0700
     46 H46        -7.8190    0.4141   56.5339 H       1  ZINC000538774026    0.0700
     47 H47        -9.2241    1.4020   59.0570 H       1  ZINC000538774026    0.1100
     48 H48       -12.0745   -2.6227   58.7410 H       1  ZINC000538774026    0.0600
     49 H49       -12.5769   -2.1126   60.3707 H       1  ZINC000538774026    0.0700
     50 H50       -12.3979   -0.9047   59.0757 H       1  ZINC000538774026    0.0800
     51 H51        -8.9348   -2.7922   60.7339 H       1  ZINC000538774026    0.0700
     52 H52       -10.5546   -3.2149   61.3390 H       1  ZINC000538774026    0.0800
     53 H53       -10.0522   -3.7250   59.7094 H       1  ZINC000538774026    0.0700
     54 H54       -10.8295    0.4047   60.5138 H       1  ZINC000538774026    0.0800
     55 H55       -11.0084   -0.8032   61.8088 H       1  ZINC000538774026    0.0700
     56 H56        -9.3887   -0.3805   61.2036 H       1  ZINC000538774026    0.0600
     57 H57        -6.9717    1.1964   60.0733 H       1  ZINC000538774026    0.0800
     58 H58        -6.2991    0.7387   58.4901 H       1  ZINC000538774026    0.0600
     59 H59        -5.9388    3.1490   58.9469 H       1  ZINC000538774026    0.0800
     60 H60        -7.6941    3.3756   59.1363 H       1  ZINC000538774026    0.0900
     61 H61        -3.2590    4.0292   51.8958 H       1  ZINC000538774026    0.1300
@<TRIPOS>BOND
     1     1     2    1
     2     1    30    1
     3     1    31    1
     4     1    32    1
     5     2     3    1
     6     2     4    1
     7     2    33    1
     8     3    34    1
     9     3    35    1
    10     3    36    1
    11     4     5    1
    12     4    37    1
    13     4    38    1
    14     5    26    1
    15     5     6    1
    16     6     7    2
    17     7     8    1
    18     7    39    1
    19     8     9    1
    20     8    26    2
    21     9    10   am
    22     9    40    1
    23    10    11    2
    24    10    12   am
    25    12    13    1
    26    12    41    1
    27    13    25    1
    28    13    14    1
    29    13    42    1
    30    14    15    1
    31    14    43    1
    32    14    44    1
    33    15    16    1
    34    15    45    1
    35    15    46    1
    36    16    17    1
    37    16    24    1
    38    16    47    1
    39    17    18    2
    40    17    19    1
    41    19    20    1
    42    20    21    1
    43    20    22    1
    44    20    23    1
    45    21    48    1
    46    21    49    1
    47    21    50    1
    48    22    51    1
    49    22    52    1
    50    22    53    1
    51    23    54    1
    52    23    55    1
    53    23    56    1
    54    24    25    1
    55    24    57    1
    56    24    58    1
    57    25    59    1
    58    25    60    1
    59    26    27    1
    60    27    28    1
    61    27    29    1
    62    27    61    1
@<TRIPOS>SUBSTRUCTURE
     1 ZINC000538774026        1 TEMP              0 ****  ****    0 ROOT


##########                                Name:    ZINC000484424341
##########                DOCK_Rotatable_Bonds:                   7
##########                         Heavy_Atoms:                  26
##########                    Molecular_Weight:             359.425
##########                DOCK_Rotatable_Bonds:                   7
##########                       Formal_Charge:          -0.0100009
##########                     HBond_Acceptors:                   7
##########                        HBond_Donors:                   1
##########                         Heavy_Atoms:                  26
##########                          Grid_Score:          -32.145241
##########                     Grid_vdw_energy:          -31.484261
##########                      Grid_es_energy:           -0.660982
##########           Internal_energy_repulsive:           22.371864

@<TRIPOS>MOLECULE
ZINC000484424341
 51 53 1 0 0
SMALL
USER_CHARGES


@<TRIPOS>ATOM
      1 C1          2.7950    0.6062   47.0214 C.3     1  ZINC000484424341    0.0300
      2 O2          1.9449   -0.5163   47.2650 O.3     1  ZINC000484424341   -0.3800
      3 C3          0.9038   -0.2626   48.2105 C.3     1  ZINC000484424341    0.1300
      4 H4          1.3211    0.2366   49.0850 H       1  ZINC000484424341    0.0700
      5 C5          0.2664   -1.5871   48.6349 C.3     1  ZINC000484424341   -0.1700
      6 C6         -0.1430    0.6195   47.5804 C.ar    1  ZINC000484424341   -0.0700
      7 C7         -0.7892    0.2098   46.4287 C.ar    1  ZINC000484424341   -0.1000
      8 C8         -1.7506    1.0162   45.8470 C.ar    1  ZINC000484424341   -0.1000
      9 C9         -2.0683    2.2340   46.4150 C.ar    1  ZINC000484424341   -0.1100
     10 C10        -1.4209    2.6489   47.5724 C.ar    1  ZINC000484424341    0.1400
     11 N11        -1.7402    3.8804   48.1502 N.am    1  ZINC000484424341   -0.6400
     12 C12        -2.3209    3.9242   49.3656 C.2     1  ZINC000484424341    0.5100
     13 O13        -2.5665    2.8939   49.9584 O.2     1  ZINC000484424341   -0.4900
     14 C14        -2.6622    5.2405   49.9831 C.2     1  ZINC000484424341    0.5200
     15 O15        -2.4645    6.2685   49.3689 O.2     1  ZINC000484424341   -0.5200
     16 N16        -3.1898    5.2869   51.2225 N.am    1  ZINC000484424341   -0.5800
     17 C17        -3.5705    6.5085   51.9466 C.3     1  ZINC000484424341    0.1100
     18 C18        -4.1512    6.0720   53.3081 C.3     1  ZINC000484424341   -0.1500
     19 C19        -4.5880    4.6065   53.0458 C.3     1  ZINC000484424341    0.1500
     20 H20        -5.5681    4.5701   52.5699 H       1  ZINC000484424341    0.1100
     21 N21        -4.5802    3.8262   54.2857 N.am    1  ZINC000484424341   -0.6100
     22 C22        -3.4190    3.0834   54.7895 C.3     1  ZINC000484424341    0.1000
     23 C23        -3.7241    2.8013   56.2774 C.3     1  ZINC000484424341   -0.1300
     24 C24        -5.2700    2.8333   56.2938 C.3     1  ZINC000484424341   -0.1600
     25 C25        -5.6341    3.7034   55.1110 C.2     1  ZINC000484424341    0.5200
     26 O26        -6.7209    4.2102   54.9300 O.2     1  ZINC000484424341   -0.5200
     27 C27        -3.4868    4.1207   52.0740 C.3     1  ZINC000484424341    0.0900
     28 C28        -0.4598    1.8340   48.1570 C.ar    1  ZINC000484424341   -0.1300
     29 H29         3.2733    0.9086   47.9530 H       1  ZINC000484424341    0.0400
     30 H30         3.5585    0.3324   46.2932 H       1  ZINC000484424341    0.0900
     31 H31         2.2017    1.4335   46.6321 H       1  ZINC000484424341    0.0400
     32 H32        -0.1508   -2.0862   47.7604 H       1  ZINC000484424341    0.0700
     33 H33         1.0236   -2.2251   49.0906 H       1  ZINC000484424341    0.0600
     34 H34        -0.5277   -1.3935   49.3561 H       1  ZINC000484424341    0.0700
     35 H35        -0.5424   -0.7420   45.9821 H       1  ZINC000484424341    0.1300
     36 H36        -2.2531    0.6933   44.9472 H       1  ZINC000484424341    0.1300
     37 H37        -2.8188    2.8634   45.9602 H       1  ZINC000484424341    0.1300
     38 H38        -1.5439    4.7038   47.6765 H       1  ZINC000484424341    0.4200
     39 H39        -2.6928    7.1360   52.1018 H       1  ZINC000484424341    0.0800
     40 H40        -4.3243    7.0554   51.3802 H       1  ZINC000484424341    0.0800
     41 H41        -3.3872    6.1136   54.0844 H       1  ZINC000484424341    0.0900
     42 H42        -5.0095    6.6880   53.5766 H       1  ZINC000484424341    0.0900
     43 H43        -3.3046    2.1468   54.2438 H       1  ZINC000484424341    0.0800
     44 H44        -2.5162    3.6871   54.6975 H       1  ZINC000484424341    0.0800
     45 H45        -3.3511    1.8207   56.5730 H       1  ZINC000484424341    0.0900
     46 H46        -3.3110    3.5828   56.9152 H       1  ZINC000484424341    0.0800
     47 H47        -5.6736    1.8282   56.1715 H       1  ZINC000484424341    0.1100
     48 H48        -5.6325    3.2809   57.2191 H       1  ZINC000484424341    0.1000
     49 H49        -3.8526    3.2896   51.4710 H       1  ZINC000484424341    0.0900
     50 H50        -2.5956    3.8253   52.6278 H       1  ZINC000484424341    0.0900
     51 H51         0.0450    2.1532   49.0568 H       1  ZINC000484424341    0.1300
@<TRIPOS>BOND
     1     1     2    1
     2     1    29    1
     3     1    30    1
     4     1    31    1
     5     2     3    1
     6     3     4    1
     7     3     5    1
     8     3     6    1
     9     5    32    1
    10     5    33    1
    11     5    34    1
    12     6    28   ar
    13     6     7   ar
    14     7     8   ar
    15     7    35    1
    16     8     9   ar
    17     8    36    1
    18     9    10   ar
    19     9    37    1
    20    10    11    1
    21    10    28   ar
    22    11    12   am
    23    11    38    1
    24    12    13    2
    25    12    14    1
    26    14    15    2
    27    14    16   am
    28    16    27    1
    29    16    17    1
    30    17    18    1
    31    17    39    1
    32    17    40    1
    33    18    19    1
    34    18    41    1
    35    18    42    1
    36    19    20    1
    37    19    21    1
    38    19    27    1
    39    21    25   am
    40    21    22    1
    41    22    23    1
    42    22    43    1
    43    22    44    1
    44    23    24    1
    45    23    45    1
    46    23    46    1
    47    24    25    1
    48    24    47    1
    49    24    48    1
    50    25    26    2
    51    27    49    1
    52    27    50    1
    53    28    51    1
@<TRIPOS>SUBSTRUCTURE
     1 ZINC000484424341        1 TEMP              0 ****  ****    0 ROOT


##########                                Name:    ZINC000284209281
##########                DOCK_Rotatable_Bonds:                   8
##########                         Heavy_Atoms:                  26
##########                    Molecular_Weight:             353.424
##########                DOCK_Rotatable_Bonds:                   8
##########                       Formal_Charge:          0.00999954
##########                     HBond_Acceptors:                   7
##########                        HBond_Donors:                   1
##########                         Heavy_Atoms:                  26
##########                          Grid_Score:          -32.144600
##########                     Grid_vdw_energy:          -31.305901
##########                      Grid_es_energy:           -0.838699
##########           Internal_energy_repulsive:           10.498500

@<TRIPOS>MOLECULE
ZINC000284209281
 49 51 1 0 0
SMALL
USER_CHARGES


@<TRIPOS>ATOM
      1 O1         -2.0548    6.2910   51.4249 O.2     1  <0>        -0.5100
      2 C2         -2.6420    5.5913   50.6261 C.2     1  <0>         0.5100
      3 N3         -3.5919    4.7348   51.0511 N.am    1  <0>        -0.7000
      4 C4         -3.9111    4.6441   52.4780 C.3     1  <0>         0.1200
      5 C5         -4.5190    3.2726   52.7786 C.3     1  <0>        -0.1000
      6 C6         -4.5878    3.0696   54.2702 C.ar    1  <0>        -0.0400
      7 C7         -3.4986    2.5730   54.9699 C.ar    1  <0>        -0.1700
      8 C8         -3.5986    2.4000   56.3373 C.ar    1  <0>         0.1000
      9 N9         -4.7126    2.7007   56.9756 N.ar    1  <0>        -0.4900
     10 C10        -5.7679    3.1750   56.3428 C.ar    1  <0>         0.1000
     11 C11        -5.7397    3.3802   54.9764 C.ar    1  <0>        -0.1700
     12 C12        -2.3165    5.6837   49.1705 C.2     1  <0>         0.5100
     13 O13        -2.7799    6.5835   48.5010 O.2     1  <0>        -0.5200
     14 N14        -1.5082    4.7676   48.6012 N.am    1  <0>        -0.5800
     15 C15        -0.9408    3.6657   49.3929 C.3     1  <0>         0.0800
     16 C16        -1.2268    2.3469   48.6666 C.3     1  <0>         0.0400
     17 N17        -0.7358    2.4361   47.2849 N.3     1  <0>        -0.5300
     18 C18        -0.8347    1.1370   46.6062 C.3     1  <0>         0.1000
     19 C19         0.0115    0.1244   47.3339 C.ar    1  <0>         0.1300
     20 C20        -0.5652   -1.0453   47.7910 C.ar    1  <0>        -0.1500
     21 C21         0.2223   -1.9708   48.4590 C.ar    1  <0>        -0.0700
     22 C22         1.5660   -1.6833   48.6428 C.ar    1  <0>        -0.1700
     23 C23         2.0725   -0.4923   48.1576 C.ar    1  <0>         0.1000
     24 N24         1.2949    0.3623   47.5224 N.ar    1  <0>        -0.4800
     25 C25        -1.4471    3.4785   46.5329 C.3     1  <0>         0.0400
     26 C26        -1.1751    4.8400   47.1705 C.3     1  <0>         0.1100
     27 H27        -4.0642    4.1784   50.4121 H       1  <0>         0.4100
     28 H28        -3.0005    4.7740   53.0630 H       1  <0>         0.0800
     29 H29        -4.6259    5.4239   52.7407 H       1  <0>         0.0800
     30 H30        -5.5233    3.2204   52.3581 H       1  <0>         0.0900
     31 H31        -3.8981    2.4947   52.3342 H       1  <0>         0.0900
     32 H32        -2.5836    2.3242   54.4527 H       1  <0>         0.1400
     33 H33        -2.7546    2.0138   56.8896 H       1  <0>         0.1600
     34 H34        -6.6632    3.4095   56.8996 H       1  <0>         0.1600
     35 H35        -6.6071    3.7692   54.4639 H       1  <0>         0.1400
     36 H36         0.1359    3.8028   49.4924 H       1  <0>         0.0800
     37 H37        -1.4032    3.6478   50.3798 H       1  <0>         0.1400
     38 H38        -0.7193    1.5309   49.1810 H       1  <0>         0.0900
     39 H39        -2.3008    2.1609   48.6597 H       1  <0>         0.0400
     40 H40        -1.8736    0.8072   46.6026 H       1  <0>         0.0900
     41 H41        -0.4813    1.2356   45.5798 H       1  <0>         0.0600
     42 H42        -1.6160   -1.2360   47.6303 H       1  <0>         0.1400
     43 H43        -0.2011   -2.8933   48.8276 H       1  <0>         0.1400
     44 H44         2.2088   -2.3811   49.1588 H       1  <0>         0.1400
     45 H45         3.1182   -0.2608   48.2969 H       1  <0>         0.1600
     46 H46        -1.0994    3.4831   45.4999 H       1  <0>         0.1000
     47 H47        -2.5181    3.2768   46.5557 H       1  <0>         0.0400
     48 H48        -1.7898    5.5997   46.6877 H       1  <0>         0.1000
     49 H49        -0.1207    5.0927   47.0585 H       1  <0>         0.0800
@<TRIPOS>BOND
     1     1     2    2
     2     2     3   am
     3     2    12    1
     4     3     4    1
     5     3    27    1
     6     4     5    1
     7     4    28    1
     8     4    29    1
     9     5     6    1
    10     5    30    1
    11     5    31    1
    12     6    11   ar
    13     6     7   ar
    14     7     8   ar
    15     7    32    1
    16     8     9   ar
    17     8    33    1
    18     9    10   ar
    19    10    11   ar
    20    10    34    1
    21    11    35    1
    22    12    13    2
    23    12    14   am
    24    14    26    1
    25    14    15    1
    26    15    16    1
    27    15    36    1
    28    15    37    1
    29    16    17    1
    30    16    38    1
    31    16    39    1
    32    17    18    1
    33    17    25    1
    34    18    19    1
    35    18    40    1
    36    18    41    1
    37    19    24   ar
    38    19    20   ar
    39    20    21   ar
    40    20    42    1
    41    21    22   ar
    42    21    43    1
    43    22    23   ar
    44    22    44    1
    45    23    24   ar
    46    23    45    1
    47    25    26    1
    48    25    46    1
    49    25    47    1
    50    26    48    1
    51    26    49    1
@<TRIPOS>SUBSTRUCTURE
     1 <0>         1 TEMP              0 ****  ****    0 ROOT


##########                                Name:    ZINC000174621331
##########                DOCK_Rotatable_Bonds:                   8
##########                         Heavy_Atoms:                  25
##########                    Molecular_Weight:             366.438
##########                DOCK_Rotatable_Bonds:                   8
##########                       Formal_Charge:        -5.96046e-08
##########                     HBond_Acceptors:                   8
##########                        HBond_Donors:                   3
##########                         Heavy_Atoms:                  25
##########                          Grid_Score:          -32.144524
##########                     Grid_vdw_energy:          -32.002205
##########                      Grid_es_energy:           -0.142317
##########           Internal_energy_repulsive:           11.929654

@<TRIPOS>MOLECULE
ZINC000174621331
 47 48 1 0 0
SMALL
USER_CHARGES


@<TRIPOS>ATOM
      1 C1         -6.0611    6.5271   54.4813 C.3     1  ZINC000174621331    0.0300
      2 O2         -5.6072    5.2292   54.0921 O.3     1  ZINC000174621331   -0.3800
      3 C3         -4.7353    5.2337   52.9599 C.3     1  ZINC000174621331    0.0500
      4 C4         -4.3155    3.7991   52.6338 C.3     1  ZINC000174621331    0.2400
      5 H5         -5.2021    3.1980   52.4319 H       1  ZINC000174621331    0.1300
      6 N6         -3.4475    3.8005   51.4536 N.am    1  ZINC000174621331   -0.7200
      7 C7         -3.4231    2.7310   50.6338 C.2     1  ZINC000174621331    0.5600
      8 O8         -4.1202    1.7648   50.8743 O.2     1  ZINC000174621331   -0.5300
      9 C9         -2.5484    2.7332   49.4418 C.ar    1  ZINC000174621331   -0.1600
     10 C10        -2.1751    3.9400   48.8486 C.ar    1  ZINC000174621331   -0.0200
     11 C11        -1.3582    3.9349   47.7366 C.ar    1  ZINC000174621331   -0.1100
     12 C12        -0.9540    5.2371   47.0948 C.3     1  ZINC000174621331   -0.1200
     13 C13        -0.9091    2.7372   47.2099 C.ar    1  ZINC000174621331    0.0400
     14 C14        -0.0167    2.7394   45.9956 C.3     1  ZINC000174621331   -0.1600
     15 C15        -1.2752    1.5370   47.7936 C.ar    1  ZINC000174621331   -0.6800
     16 S16        -0.6971    0.0171   47.1150 S.o2    1  ZINC000174621331    2.7000
     17 N17        -1.0071   -1.1670   48.2305 N.am    1  ZINC000174621331   -1.2500
     18 O18        -1.5237   -0.2617   45.9934 O.2     1  ZINC000174621331   -0.9500
     19 O19         0.7170    0.1280   47.0299 O.2     1  ZINC000174621331   -0.9600
     20 C20        -2.0878    1.5283   48.9081 C.ar    1  ZINC000174621331    0.0400
     21 C21        -3.5690    3.2155   53.8056 C.2     1  ZINC000174621331   -0.0200
     22 C22        -4.1053    2.4665   54.7859 C.2     1  ZINC000174621331   -0.1900
     23 C23        -3.0533    2.1355   55.6706 C.2     1  ZINC000174621331   -0.2100
     24 C24        -1.9371    2.7021   55.1781 C.2     1  ZINC000174621331    0.0000
     25 C25        -0.5624    2.6179   55.7897 C.3     1  ZINC000174621331   -0.0800
     26 O26        -2.2544    3.3500   54.0452 O.3     1  ZINC000174621331   -0.1600
     27 H27        -5.2041    7.1500   54.7377 H       1  ZINC000174621331    0.0400
     28 H28        -6.6079    6.9834   53.6561 H       1  ZINC000174621331    0.0400
     29 H29        -6.7175    6.4380   55.3469 H       1  ZINC000174621331    0.0900
     30 H30        -5.2543    5.6640   52.1034 H       1  ZINC000174621331    0.0700
     31 H31        -3.8504    5.8289   53.1852 H       1  ZINC000174621331    0.0700
     32 H32        -2.8903    4.5711   51.2622 H       1  ZINC000174621331    0.4100
     33 H33        -2.5251    4.8757   49.2588 H       1  ZINC000174621331    0.1400
     34 H34        -0.0289    5.5938   47.5478 H       1  ZINC000174621331    0.0800
     35 H35        -0.7997    5.0833   46.0267 H       1  ZINC000174621331    0.0800
     36 H36        -1.7409    5.9761   47.2455 H       1  ZINC000174621331    0.0700
     37 H37         1.0258    2.7829   46.3108 H       1  ZINC000174621331    0.1100
     38 H38        -0.1846    1.8292   45.4197 H       1  ZINC000174621331    0.0700
     39 H39        -0.2460    3.6077   45.3778 H       1  ZINC000174621331    0.0900
     40 H40        -0.6134   -1.1148   49.1154 H       1  ZINC000174621331    0.4200
     41 H41        -1.5824   -1.9128   47.9988 H       1  ZINC000174621331    0.4200
     42 H42        -2.3725    0.5909   49.3629 H       1  ZINC000174621331    0.1600
     43 H43        -5.1408    2.1745   54.8794 H       1  ZINC000174621331    0.1500
     44 H44        -3.1311    1.5421   56.5696 H       1  ZINC000174621331    0.1500
     45 H45        -0.0403    1.7477   55.3918 H       1  ZINC000174621331    0.0800
     46 H46        -0.0012    3.5203   55.5479 H       1  ZINC000174621331    0.0800
     47 H47        -0.6514    2.5246   56.8722 H       1  ZINC000174621331    0.0900
@<TRIPOS>BOND
     1     1     2    1
     2     1    27    1
     3     1    28    1
     4     1    29    1
     5     2     3    1
     6     3     4    1
     7     3    30    1
     8     3    31    1
     9     4     5    1
    10     4     6    1
    11     4    21    1
    12     6     7   am
    13     6    32    1
    14     7     8    2
    15     7     9    1
    16     9    20   ar
    17     9    10   ar
    18    10    11   ar
    19    10    33    1
    20    11    12    1
    21    11    13   ar
    22    12    34    1
    23    12    35    1
    24    12    36    1
    25    13    14    1
    26    13    15   ar
    27    14    37    1
    28    14    38    1
    29    14    39    1
    30    15    16    1
    31    15    20   ar
    32    16    17   am
    33    16    18    2
    34    16    19    2
    35    17    40    1
    36    17    41    1
    37    20    42    1
    38    21    26    1
    39    21    22    2
    40    22    23    1
    41    22    43    1
    42    23    24    2
    43    23    44    1
    44    24    25    1
    45    24    26    1
    46    25    45    1
    47    25    46    1
    48    25    47    1
@<TRIPOS>SUBSTRUCTURE
     1 ZINC000174621331        1 TEMP              0 ****  ****    0 ROOT


##########                                Name:    ZINC000373715094
##########                DOCK_Rotatable_Bonds:                   6
##########                         Heavy_Atoms:                  27
##########                    Molecular_Weight:             362.431
##########                DOCK_Rotatable_Bonds:                   6
##########                       Formal_Charge:           0.0299999
##########                     HBond_Acceptors:                   6
##########                        HBond_Donors:                   2
##########                         Heavy_Atoms:                  27
##########                          Grid_Score:          -32.144047
##########                     Grid_vdw_energy:          -31.785660
##########                      Grid_es_energy:           -0.358389
##########           Internal_energy_repulsive:           14.053719

@<TRIPOS>MOLECULE
ZINC000373715094
 49 52 1 0 0
SMALL
USER_CHARGES


@<TRIPOS>ATOM
      1 C1          0.1651    4.2439   46.1820 C.3     1  ZINC000373715094    0.0900
      2 N2          0.2429    2.8736   46.6945 N.am    1  ZINC000373715094   -0.6100
      3 C3          1.0222    2.4907   47.7206 C.2     1  ZINC000373715094    0.5200
      4 O4          1.7599    3.2242   48.3440 O.2     1  ZINC000373715094   -0.5200
      5 C5          0.8450    1.0117   47.9849 C.3     1  ZINC000373715094   -0.1600
      6 C6         -0.4611    0.6476   47.2415 C.3     1  ZINC000373715094   -0.1000
      7 H7         -0.3916   -0.3438   46.7938 H       1  ZINC000373715094    0.1100
      8 C8         -1.6679    0.7392   48.1775 C.3     1  ZINC000373715094    0.1300
      9 N9         -1.6949    2.0595   48.8117 N.am    1  ZINC000373715094   -0.7300
     10 C10        -2.6728    2.3668   49.6868 C.2     1  ZINC000373715094    0.5200
     11 O11        -3.5296    1.5499   49.9503 O.2     1  ZINC000373715094   -0.5200
     12 C12        -2.7015    3.7257   50.3378 C.3     1  ZINC000373715094   -0.0600
     13 C13        -1.9995    3.6595   51.6696 C.2     1  ZINC000373715094    0.1200
     14 N14        -0.7366    3.8945   51.8841 N.2     1  ZINC000373715094   -0.2300
     15 N15        -0.4423    3.7368   53.2424 N.pl3   1  ZINC000373715094   -0.5100
     16 C16        -1.5857    3.3839   53.9105 C.ar    1  ZINC000373715094    0.1300
     17 C17        -1.8774    3.1055   55.2432 C.ar    1  ZINC000373715094   -0.1400
     18 C18        -3.1525    2.7746   55.6055 C.ar    1  ZINC000373715094   -0.0700
     19 C19        -4.1675    2.7109   54.6590 C.ar    1  ZINC000373715094   -0.1600
     20 C20        -3.9110    2.9786   53.3453 C.ar    1  ZINC000373715094   -0.0400
     21 C21        -2.6148    3.3265   52.9504 C.ar    1  ZINC000373715094   -0.1600
     22 C22        -0.5247    1.7438   46.1575 C.3     1  ZINC000373715094    0.1800
     23 H23        -1.5591    2.0365   45.9772 H       1  ZINC000373715094    0.1000
     24 C24         0.1076    1.2522   44.8809 C.ar    1  ZINC000373715094   -0.1000
     25 C25        -0.5207    0.2771   44.1292 C.ar    1  ZINC000373715094   -0.1000
     26 C26         0.0593   -0.1738   42.9582 C.ar    1  ZINC000373715094   -0.1200
     27 C27         1.2676    0.3508   42.5388 C.ar    1  ZINC000373715094   -0.1100
     28 C28         1.8954    1.3267   43.2900 C.ar    1  ZINC000373715094   -0.1200
     29 C29         1.3133    1.7806   44.4587 C.ar    1  ZINC000373715094   -0.1100
     30 H30        -0.6153    4.7873   46.7147 H       1  ZINC000373715094    0.0600
     31 H31         1.1225    4.7429   46.3322 H       1  ZINC000373715094    0.0800
     32 H32        -0.0697    4.2210   45.1178 H       1  ZINC000373715094    0.0700
     33 H33         1.6849    0.4483   47.5789 H       1  ZINC000373715094    0.1100
     34 H34         0.7402    0.8251   49.0537 H       1  ZINC000373715094    0.1100
     35 H35        -2.5837    0.5923   47.6049 H       1  ZINC000373715094    0.0700
     36 H36        -1.5917   -0.0311   48.9449 H       1  ZINC000373715094    0.0800
     37 H37        -1.0089    2.7124   48.6019 H       1  ZINC000373715094    0.4000
     38 H38        -2.1957    4.4469   49.6959 H       1  ZINC000373715094    0.1200
     39 H39        -3.7359    4.0351   50.4873 H       1  ZINC000373715094    0.1200
     40 H40         0.4311    3.8576   53.6467 H       1  ZINC000373715094    0.4400
     41 H41        -1.0974    3.1508   55.9889 H       1  ZINC000373715094    0.1300
     42 H42        -3.3741    2.5595   56.6404 H       1  ZINC000373715094    0.1300
     43 H43        -5.1688    2.4466   54.9655 H       1  ZINC000373715094    0.1300
     44 H44        -4.7055    2.9270   52.6156 H       1  ZINC000373715094    0.1300
     45 H45        -1.4646   -0.1327   44.4569 H       1  ZINC000373715094    0.1200
     46 H46        -0.4313   -0.9362   42.3713 H       1  ZINC000373715094    0.1200
     47 H47         1.7211   -0.0020   41.6242 H       1  ZINC000373715094    0.1200
     48 H48         2.8395    1.7362   42.9624 H       1  ZINC000373715094    0.1300
     49 H49         1.8039    2.5430   45.0456 H       1  ZINC000373715094    0.1300
@<TRIPOS>BOND
     1     1     2    1
     2     1    30    1
     3     1    31    1
     4     1    32    1
     5     2    22    1
     6     2     3   am
     7     3     4    2
     8     3     5    1
     9     5     6    1
    10     5    33    1
    11     5    34    1
    12     6     7    1
    13     6     8    1
    14     6    22    1
    15     8     9    1
    16     8    35    1
    17     8    36    1
    18     9    10   am
    19     9    37    1
    20    10    11    2
    21    10    12    1
    22    12    13    1
    23    12    38    1
    24    12    39    1
    25    13    21    1
    26    13    14    2
    27    14    15    1
    28    15    16    1
    29    15    40    1
    30    16    21   ar
    31    16    17   ar
    32    17    18   ar
    33    17    41    1
    34    18    19   ar
    35    18    42    1
    36    19    20   ar
    37    19    43    1
    38    20    21   ar
    39    20    44    1
    40    22    23    1
    41    22    24    1
    42    24    29   ar
    43    24    25   ar
    44    25    26   ar
    45    25    45    1
    46    26    27   ar
    47    26    46    1
    48    27    28   ar
    49    27    47    1
    50    28    29   ar
    51    28    48    1
    52    29    49    1
@<TRIPOS>SUBSTRUCTURE
     1 ZINC000373715094        1 TEMP              0 ****  ****    0 ROOT


##########                                Name:    ZINC000494558165
##########                DOCK_Rotatable_Bonds:                  11
##########                         Heavy_Atoms:                  28
##########                    Molecular_Weight:             409.506
##########                DOCK_Rotatable_Bonds:                  11
##########                       Formal_Charge:        -6.55651e-07
##########                     HBond_Acceptors:                   9
##########                        HBond_Donors:                   3
##########                         Heavy_Atoms:                  28
##########                          Grid_Score:          -32.120380
##########                     Grid_vdw_energy:          -31.778603
##########                      Grid_es_energy:           -0.341776
##########           Internal_energy_repulsive:           32.419895

@<TRIPOS>MOLECULE
ZINC000494558165
 55 57 1 0 0
SMALL
USER_CHARGES


@<TRIPOS>ATOM
      1 O1        -11.7198   -2.6645   58.7330 O.2     1  ZINC000494558165   -0.4400
      2 C2        -12.5334   -1.7756   58.6007 C.2     1  ZINC000494558165    0.5100
      3 C3        -13.7079   -1.6829   59.5404 C.3     1  ZINC000494558165    0.0300
      4 N4        -14.9051   -2.2235   58.8827 N.3     1  ZINC000494558165   -0.5000
      5 C5        -14.6830   -3.6060   58.4387 C.3     1  ZINC000494558165    0.0500
      6 C6        -14.5638   -3.6391   56.9137 C.3     1  ZINC000494558165   -0.1100
      7 C7        -14.4060   -5.0871   56.4458 C.3     1  ZINC000494558165    0.0800
      8 O8        -13.2218   -5.6462   57.0178 O.3     1  ZINC000494558165   -0.5700
      9 C9        -16.0758   -2.1356   59.7657 C.3     1  ZINC000494558165    0.1200
     10 H10       -16.1467   -3.0274   60.3885 H       1  ZINC000494558165    0.1000
     11 C11       -17.3632   -1.9605   58.9326 C.3     1  ZINC000494558165   -0.1200
     12 C12       -17.5148   -0.4255   58.8756 C.3     1  ZINC000494558165   -0.0900
     13 C13       -16.8177    0.0878   60.1172 C.ar    1  ZINC000494558165   -0.0900
     14 C14       -16.8999    1.3170   60.7491 C.ar    1  ZINC000494558165   -0.1100
     15 C15       -16.1585    1.5640   61.8884 C.ar    1  ZINC000494558165   -0.1100
     16 C16       -15.3319    0.5815   62.3998 C.ar    1  ZINC000494558165   -0.1200
     17 C17       -15.2485   -0.6456   61.7707 C.ar    1  ZINC000494558165   -0.1000
     18 C18       -15.9894   -0.8964   60.6307 C.ar    1  ZINC000494558165   -0.1300
     19 N19       -12.3845   -0.8668   57.6165 N.am    1  ZINC000494558165   -0.6900
     20 C20       -11.3341   -0.9497   56.7761 C.2     1  ZINC000494558165    0.7000
     21 O21       -10.5203   -1.8429   56.9067 O.2     1  ZINC000494558165   -0.5200
     22 N22       -11.1860   -0.0419   55.7910 N.am    1  ZINC000494558165   -0.7300
     23 C23       -10.0452   -0.1330   54.8764 C.3     1  ZINC000494558165    0.1700
     24 H24        -9.1973   -0.5840   55.3919 H       1  ZINC000494558165    0.1200
     25 C25       -10.4263   -0.9921   53.6579 C.3     1  ZINC000494558165   -0.1400
     26 C26        -9.3170   -0.7737   52.5968 C.3     1  ZINC000494558165   -0.5800
     27 S27        -9.0301    1.0343   52.6860 S.o2    1  ZINC000494558165    2.4000
     28 O28        -7.6328    1.2913   52.6605 O.2     1  ZINC000494558165   -0.9300
     29 O29        -9.8879    1.6933   51.7645 O.2     1  ZINC000494558165   -0.9300
     30 C30        -9.6622    1.2766   54.3836 C.3     1  ZINC000494558165   -0.6200
     31 H31       -13.4979   -2.2580   60.4423 H       1  ZINC000494558165    0.0700
     32 H32       -13.8791   -0.6398   59.8062 H       1  ZINC000494558165    0.1200
     33 H33       -13.7638   -3.9872   58.8834 H       1  ZINC000494558165    0.0900
     34 H34       -15.5224   -4.2272   58.7511 H       1  ZINC000494558165    0.0400
     35 H35       -15.4619   -3.2095   56.4697 H       1  ZINC000494558165    0.0700
     36 H36       -13.6933   -3.0604   56.6048 H       1  ZINC000494558165    0.0800
     37 H37       -15.2720   -5.6680   56.7632 H       1  ZINC000494558165    0.0500
     38 H38       -14.3307   -5.1115   55.3587 H       1  ZINC000494558165    0.0400
     39 H39       -13.2666   -5.7658   57.9764 H       1  ZINC000494558165    0.3800
     40 H40       -17.2366   -2.3746   57.9323 H       1  ZINC000494558165    0.0900
     41 H41       -18.2157   -2.4156   59.4366 H       1  ZINC000494558165    0.0800
     42 H42       -17.0332   -0.0308   57.9810 H       1  ZINC000494558165    0.0800
     43 H43       -18.5689   -0.1487   58.8919 H       1  ZINC000494558165    0.0800
     44 H44       -17.5453    2.0853   60.3499 H       1  ZINC000494558165    0.1200
     45 H45       -16.2252    2.5237   62.3791 H       1  ZINC000494558165    0.1300
     46 H46       -14.7513    0.7730   63.2901 H       1  ZINC000494558165    0.1200
     47 H47       -14.6020   -1.4127   62.1707 H       1  ZINC000494558165    0.1200
     48 H48       -13.0333   -0.1532   57.5130 H       1  ZINC000494558165    0.4100
     49 H49       -11.8348    0.6717   55.6875 H       1  ZINC000494558165    0.4000
     50 H50       -10.4698   -2.0437   53.9415 H       1  ZINC000494558165    0.1100
     51 H51       -11.3900   -0.6716   53.2619 H       1  ZINC000494558165    0.0900
     52 H52        -8.4135   -1.3224   52.8631 H       1  ZINC000494558165    0.1400
     53 H53        -9.6676   -1.0614   51.6057 H       1  ZINC000494558165    0.1400
     54 H54       -10.5374    1.9261   54.3724 H       1  ZINC000494558165    0.1500
     55 H55        -8.8847    1.6987   55.0202 H       1  ZINC000494558165    0.1500
@<TRIPOS>BOND
     1     1     2    2
     2     2     3    1
     3     2    19   am
     4     3     4    1
     5     3    31    1
     6     3    32    1
     7     4     5    1
     8     4     9    1
     9     5     6    1
    10     5    33    1
    11     5    34    1
    12     6     7    1
    13     6    35    1
    14     6    36    1
    15     7     8    1
    16     7    37    1
    17     7    38    1
    18     8    39    1
    19     9    10    1
    20     9    18    1
    21     9    11    1
    22    11    12    1
    23    11    40    1
    24    11    41    1
    25    12    13    1
    26    12    42    1
    27    12    43    1
    28    13    18   ar
    29    13    14   ar
    30    14    15   ar
    31    14    44    1
    32    15    16   ar
    33    15    45    1
    34    16    17   ar
    35    16    46    1
    36    17    18   ar
    37    17    47    1
    38    19    20   am
    39    19    48    1
    40    20    21    2
    41    20    22   am
    42    22    23    1
    43    22    49    1
    44    23    24    1
    45    23    30    1
    46    23    25    1
    47    25    26    1
    48    25    50    1
    49    25    51    1
    50    26    27    1
    51    26    52    1
    52    26    53    1
    53    27    28    2
    54    27    29    2
    55    27    30    1
    56    30    54    1
    57    30    55    1
@<TRIPOS>SUBSTRUCTURE
     1 ZINC000494558165        1 TEMP              0 ****  ****    0 ROOT


##########                                Name:    ZINC001369071670
##########                DOCK_Rotatable_Bonds:                   8
##########                         Heavy_Atoms:                  24
##########                    Molecular_Weight:             335.366
##########                DOCK_Rotatable_Bonds:                   8
##########                       Formal_Charge:        -2.90573e-07
##########                     HBond_Acceptors:                  10
##########                        HBond_Donors:                   1
##########                         Heavy_Atoms:                  24
##########                          Grid_Score:          -32.118942
##########                     Grid_vdw_energy:          -30.827517
##########                      Grid_es_energy:           -1.291424
##########           Internal_energy_repulsive:            7.106447

@<TRIPOS>MOLECULE
ZINC001369071670
 45 47 1 0 0
SMALL
USER_CHARGES


@<TRIPOS>ATOM
      1 C1          1.8299    1.5355   59.1779 C.3     1  ZINC001369071670   -0.0800
      2 C2          1.5528    1.7308   57.7094 C.2     1  ZINC001369071670    0.0000
      3 C3          0.3956    2.1591   57.1550 C.2     1  ZINC001369071670   -0.2300
      4 C4          0.6652    2.1650   55.7615 C.2     1  ZINC001369071670    0.2100
      5 O5         -0.1880    2.5218   54.7684 O.3     1  ZINC001369071670   -0.2600
      6 C6         -1.4848    2.9770   55.1596 C.3     1  ZINC001369071670    0.0400
      7 C7         -2.2899    3.3158   53.9316 C.2     1  ZINC001369071670    0.5200
      8 O8         -3.4931    3.1630   53.9341 O.2     1  ZINC001369071670   -0.5100
      9 N9         -1.6730    3.7886   52.8306 N.am    1  ZINC001369071670   -0.7200
     10 C10        -2.4559    4.1196   51.6374 C.3     1  ZINC001369071670    0.1500
     11 H11        -3.3402    3.4837   51.5950 H       1  ZINC001369071670    0.0900
     12 C12        -2.8855    5.5868   51.7000 C.3     1  ZINC001369071670   -0.1700
     13 C13        -1.6030    3.8908   50.3880 C.3     1  ZINC001369071670   -0.1200
     14 C14        -1.4768    2.4101   49.9865 C.3     1  ZINC001369071670    0.0100
     15 N15        -1.6598    2.8746   48.5936 N.3     1  ZINC001369071670   -0.4800
     16 C16        -2.5656    1.9838   47.8562 C.3     1  ZINC001369071670    0.1000
     17 C17        -1.8352    0.7181   47.4875 C.2     1  ZINC001369071670    0.1900
     18 N18        -1.6151   -0.3133   48.2657 N.2     1  ZINC001369071670   -0.3000
     19 N19        -0.9616   -1.1918   47.5867 N.2     1  ZINC001369071670   -0.0700
     20 N20        -0.7590   -0.7475   46.3956 N.2     1  ZINC001369071670   -0.0900
     21 N21        -1.2874    0.4251   46.2936 N.pl3   1  ZINC001369071670   -0.3000
     22 C22        -1.2835    1.2809   45.1045 C.3     1  ZINC001369071670    0.0800
     23 C23        -2.3730    4.0808   49.0687 C.3     1  ZINC001369071670    0.0200
     24 N24         1.8993    1.7588   55.6265 N.2     1  ZINC001369071670   -0.4100
     25 O25         2.4068    1.5196   56.6976 O.3     1  ZINC001369071670    0.1000
     26 H26         2.8540    1.1868   59.3111 H       1  ZINC001369071670    0.0900
     27 H27         1.6975    2.4822   59.7017 H       1  ZINC001369071670    0.1000
     28 H28         1.1388    0.7963   59.5828 H       1  ZINC001369071670    0.1000
     29 H29        -0.5209    2.4329   57.6564 H       1  ZINC001369071670    0.1800
     30 H30        -1.9915    2.1918   55.7210 H       1  ZINC001369071670    0.1000
     31 H31        -1.3852    3.8642   55.7849 H       1  ZINC001369071670    0.1000
     32 H32        -0.7106    3.9097   52.8281 H       1  ZINC001369071670    0.4000
     33 H33        -3.4931    5.7497   52.5901 H       1  ZINC001369071670    0.0600
     34 H34        -2.0012    6.2227   51.7423 H       1  ZINC001369071670    0.0600
     35 H35        -3.4679    5.8331   50.8122 H       1  ZINC001369071670    0.0700
     36 H36        -0.6510    4.4208   50.4206 H       1  ZINC001369071670    0.1100
     37 H37        -0.4926    1.9844   50.1817 H       1  ZINC001369071670    0.1000
     38 H38        -2.2919    1.7852   50.3516 H       1  ZINC001369071670    0.0800
     39 H39        -3.4235    1.7389   48.4823 H       1  ZINC001369071670    0.1000
     40 H40        -2.9078    2.4829   46.9497 H       1  ZINC001369071670    0.0900
     41 H41        -2.1656    1.0679   44.5006 H       1  ZINC001369071670    0.1000
     42 H42        -1.2961    2.3272   45.4097 H       1  ZINC001369071670    0.1000
     43 H43        -0.3858    1.0842   44.5183 H       1  ZINC001369071670    0.1100
     44 H44        -3.4501    3.9446   49.1654 H       1  ZINC001369071670    0.0800
     45 H45        -2.1047    4.9901   48.5307 H       1  ZINC001369071670    0.1000
@<TRIPOS>BOND
     1     1     2    1
     2     1    26    1
     3     1    27    1
     4     1    28    1
     5     2    25    1
     6     2     3    2
     7     3     4    1
     8     3    29    1
     9     4     5    1
    10     4    24    2
    11     5     6    1
    12     6     7    1
    13     6    30    1
    14     6    31    1
    15     7     8    2
    16     7     9   am
    17     9    10    1
    18     9    32    1
    19    10    11    1
    20    10    12    1
    21    10    13    1
    22    12    33    1
    23    12    34    1
    24    12    35    1
    25    13    23    1
    26    13    14    1
    27    13    36    1
    28    14    15    1
    29    14    37    1
    30    14    38    1
    31    15    16    1
    32    15    23    1
    33    16    17    1
    34    16    39    1
    35    16    40    1
    36    17    21    1
    37    17    18    2
    38    18    19    1
    39    19    20    2
    40    20    21    1
    41    21    22    1
    42    22    41    1
    43    22    42    1
    44    22    43    1
    45    23    44    1
    46    23    45    1
    47    24    25    1
@<TRIPOS>SUBSTRUCTURE
     1 ZINC001369071670        1 TEMP              0 ****  ****    0 ROOT


##########                                Name:    ZINC001098311495
##########                DOCK_Rotatable_Bonds:                   8
##########                         Heavy_Atoms:                  24
##########                    Molecular_Weight:             328.454
##########                DOCK_Rotatable_Bonds:                   8
##########                       Formal_Charge:          0.00999987
##########                     HBond_Acceptors:                   4
##########                        HBond_Donors:                   1
##########                         Heavy_Atoms:                  24
##########                          Grid_Score:          -32.097385
##########                     Grid_vdw_energy:          -30.096573
##########                      Grid_es_energy:           -2.000813
##########           Internal_energy_repulsive:           24.568279

@<TRIPOS>MOLECULE
ZINC001098311495
 52 54 1 0 0
SMALL
USER_CHARGES


@<TRIPOS>ATOM
      1 C1         -4.8303    3.5213   53.4865 C.3     1  ZINC001098311495   -0.1500
      2 C2         -3.5707    3.2040   54.2949 C.3     1  ZINC001098311495    0.0500
      3 O3         -2.4139    3.5300   53.5219 O.3     1  ZINC001098311495   -0.2800
      4 C4         -1.2067    3.2318   54.0641 C.ar    1  ZINC001098311495    0.1900
      5 C5         -1.1208    2.8053   55.3808 C.ar    1  ZINC001098311495   -0.2200
      6 C6          0.1094    2.5083   55.9334 C.ar    1  ZINC001098311495   -0.0500
      7 C7          1.2641    2.6270   55.1777 C.ar    1  ZINC001098311495   -0.1700
      8 C8          1.1967    3.0437   53.8656 C.ar    1  ZINC001098311495   -0.0500
      9 C9         -0.0410    3.3477   53.2943 C.ar    1  ZINC001098311495   -0.1800
     10 C10        -0.1205    3.7942   51.8903 C.2     1  ZINC001098311495    0.5600
     11 O11         0.4812    4.7888   51.5337 O.2     1  ZINC001098311495   -0.5200
     12 N12        -0.8601    3.0997   51.0031 N.am    1  ZINC001098311495   -0.7200
     13 C13        -0.9377    3.5421   49.6086 C.3     1  ZINC001098311495    0.1600
     14 H14        -1.0538    4.6246   49.5566 H       1  ZINC001098311495    0.1000
     15 C15        -2.1002    2.8298   48.8747 C.3     1  ZINC001098311495   -0.1200
     16 C16        -1.3839    2.0396   47.7383 C.3     1  ZINC001098311495    0.0500
     17 H17        -1.9426    1.2002   47.3244 H       1  ZINC001098311495    0.1100
     18 C18        -0.9183    3.1118   46.7075 C.3     1  ZINC001098311495   -0.1500
     19 C19         0.2502    3.8254   47.4304 C.3     1  ZINC001098311495   -0.1500
     20 C20         0.3257    3.0870   48.8176 C.3     1  ZINC001098311495    0.0400
     21 H21         1.2772    3.1706   49.3428 H       1  ZINC001098311495    0.1200
     22 N22        -0.0781    1.6953   48.4057 N.3     1  ZINC001098311495   -0.4900
     23 C23         0.8756    1.1350   47.4390 C.3     1  ZINC001098311495    0.0600
     24 C24         1.5937   -0.0344   48.0618 C.2     1  ZINC001098311495   -0.1600
     25 C25         0.9460   -1.1470   48.3046 C.2     1  ZINC001098311495   -0.1200
     26 C26         1.6640   -2.3163   48.9275 C.3     1  ZINC001098311495   -0.1200
     27 C27        -0.5172   -1.2573   47.9610 C.3     1  ZINC001098311495   -0.1200
     28 H28        -4.8457    4.5827   53.2394 H       1  ZINC001098311495    0.0700
     29 H29        -4.8299    2.9344   52.5680 H       1  ZINC001098311495    0.0700
     30 H30        -5.7127    3.2726   54.0761 H       1  ZINC001098311495    0.0800
     31 H31        -3.5553    2.1425   54.5420 H       1  ZINC001098311495    0.0600
     32 H32        -3.5710    3.7909   55.2134 H       1  ZINC001098311495    0.0600
     33 H33        -2.0167    2.7098   55.9763 H       1  ZINC001098311495    0.1300
     34 H34         0.1716    2.1811   56.9607 H       1  ZINC001098311495    0.1300
     35 H35         2.2216    2.3919   55.6185 H       1  ZINC001098311495    0.1300
     36 H36         2.0996    3.1352   53.2801 H       1  ZINC001098311495    0.1300
     37 H37        -1.3412    2.3069   51.2879 H       1  ZINC001098311495    0.4000
     38 H38        -2.7941    3.5591   48.4565 H       1  ZINC001098311495    0.0800
     39 H39        -2.6187    2.1478   49.5484 H       1  ZINC001098311495    0.0800
     40 H40        -0.5693    2.6366   45.7906 H       1  ZINC001098311495    0.0700
     41 H41        -1.7239    3.8144   46.4941 H       1  ZINC001098311495    0.0800
     42 H42         1.1784    3.7039   46.8719 H       1  ZINC001098311495    0.0700
     43 H43         0.0239    4.8818   47.5754 H       1  ZINC001098311495    0.0800
     44 H44         1.6006    1.8993   47.1590 H       1  ZINC001098311495    0.0500
     45 H45         0.3388    0.8007   46.5511 H       1  ZINC001098311495    0.0800
     46 H46         2.6423    0.0446   48.3080 H       1  ZINC001098311495    0.1100
     47 H47         2.0830   -2.9456   48.1422 H       1  ZINC001098311495    0.0700
     48 H48         0.9612   -2.8986   49.5235 H       1  ZINC001098311495    0.0600
     49 H49         2.4671   -1.9506   49.5673 H       1  ZINC001098311495    0.0600
     50 H50        -1.1140   -0.8538   48.7790 H       1  ZINC001098311495    0.0700
     51 H51        -0.7202   -0.6935   47.0506 H       1  ZINC001098311495    0.0600
     52 H52        -0.7758   -2.3047   47.8050 H       1  ZINC001098311495    0.0600
@<TRIPOS>BOND
     1     1     2    1
     2     1    28    1
     3     1    29    1
     4     1    30    1
     5     2     3    1
     6     2    31    1
     7     2    32    1
     8     3     4    1
     9     4     9   ar
    10     4     5   ar
    11     5     6   ar
    12     5    33    1
    13     6     7   ar
    14     6    34    1
    15     7     8   ar
    16     7    35    1
    17     8     9   ar
    18     8    36    1
    19     9    10    1
    20    10    11    2
    21    10    12   am
    22    12    13    1
    23    12    37    1
    24    13    14    1
    25    13    20    1
    26    13    15    1
    27    15    16    1
    28    15    38    1
    29    15    39    1
    30    16    17    1
    31    16    22    1
    32    16    18    1
    33    18    19    1
    34    18    40    1
    35    18    41    1
    36    19    20    1
    37    19    42    1
    38    19    43    1
    39    20    21    1
    40    20    22    1
    41    22    23    1
    42    23    24    1
    43    23    44    1
    44    23    45    1
    45    24    25    2
    46    24    46    1
    47    25    26    1
    48    25    27    1
    49    26    47    1
    50    26    48    1
    51    26    49    1
    52    27    50    1
    53    27    51    1
    54    27    52    1
@<TRIPOS>SUBSTRUCTURE
     1 ZINC001098311495        1 TEMP              0 ****  ****    0 ROOT


##########                                Name:    ZINC000015179664
##########                DOCK_Rotatable_Bonds:                   8
##########                         Heavy_Atoms:                  25
##########                    Molecular_Weight:             361.422
##########                DOCK_Rotatable_Bonds:                   8
##########                       Formal_Charge:        -2.23517e-07
##########                     HBond_Acceptors:                   8
##########                        HBond_Donors:                   1
##########                         Heavy_Atoms:                  25
##########                          Grid_Score:          -32.050789
##########                     Grid_vdw_energy:          -33.056210
##########                      Grid_es_energy:            1.005422
##########           Internal_energy_repulsive:           22.324896

@<TRIPOS>MOLECULE
ZINC000015179664
 44 45 1 0 0
SMALL
USER_CHARGES


@<TRIPOS>ATOM
      1 C1         -2.5300    5.7085   50.7002 C.3     1  ZINC000015179664   -0.1600
      2 C2         -2.9299    4.2366   50.8217 C.3     1  ZINC000015179664    0.1800
      3 H3         -3.9805    4.1223   50.5548 H       1  ZINC000015179664    0.1200
      4 C4         -2.7188    3.7741   52.2404 C.ar    1  ZINC000015179664   -0.1000
      5 C5         -1.4464    3.7573   52.7797 C.ar    1  ZINC000015179664   -0.0700
      6 C6         -1.2528    3.3331   54.0813 C.ar    1  ZINC000015179664   -0.1200
      7 C7         -2.3318    2.9262   54.8432 C.ar    1  ZINC000015179664   -0.0500
      8 C8         -3.6048    2.9440   54.3041 C.ar    1  ZINC000015179664   -0.0400
      9 N9         -4.7602    2.5078   55.1199 N.pl3   1  ZINC000015179664    0.0300
     10 O10        -4.5896    2.1332   56.2662 O.2     1  ZINC000015179664   -0.1600
     11 O11        -5.8816    2.5235   54.6448 O.2     1  ZINC000015179664   -0.1500
     12 C12        -3.7989    3.3721   53.0043 C.ar    1  ZINC000015179664   -0.0400
     13 N13        -2.1058    3.4305   49.9176 N.am    1  ZINC000015179664   -0.6100
     14 C14        -0.8819    3.9948   49.3431 C.3     1  ZINC000015179664    0.0600
     15 C15        -2.4735    2.1698   49.6146 C.2     1  ZINC000015179664    0.5200
     16 O16        -3.4859    1.7022   50.0914 O.2     1  ZINC000015179664   -0.5200
     17 C17        -1.6268    1.3412   48.6832 C.3     1  ZINC000015179664   -0.1500
     18 C18        -2.0449    1.6123   47.2366 C.3     1  ZINC000015179664    0.1300
     19 N19        -0.8723    1.5183   46.3635 N.am    1  ZINC000015179664   -0.7300
     20 C20        -0.9899    0.9826   45.1325 C.2     1  ZINC000015179664    0.5800
     21 O21        -2.0694    0.5757   44.7468 O.2     1  ZINC000015179664   -0.5300
     22 C22         0.1879    0.8898   44.2546 C.2     1  ZINC000015179664   -0.1500
     23 C23         1.4239    1.3333   44.6086 C.2     1  ZINC000015179664   -0.2200
     24 S24         2.5457    1.0666   43.3535 S.3     1  ZINC000015179664    0.1900
     25 C25         1.3291    0.3388   42.3190 C.2     1  ZINC000015179664   -0.2300
     26 C26         0.1511    0.3128   42.9310 C.2     1  ZINC000015179664   -0.0900
     27 H27        -3.1432    6.3082   51.3729 H       1  ZINC000015179664    0.0800
     28 H28        -1.4794    5.8228   50.9673 H       1  ZINC000015179664    0.0600
     29 H29        -2.6827    6.0429   49.6741 H       1  ZINC000015179664    0.0700
     30 H30        -0.6033    4.0752   52.1844 H       1  ZINC000015179664    0.1500
     31 H31        -0.2584    3.3191   54.5024 H       1  ZINC000015179664    0.1500
     32 H32        -2.1804    2.5941   55.8597 H       1  ZINC000015179664    0.1600
     33 H33        -4.7932    3.3861   52.5831 H       1  ZINC000015179664    0.1600
     34 H34        -0.0479    3.8216   50.0231 H       1  ZINC000015179664    0.0600
     35 H35        -0.6757    3.5160   48.3858 H       1  ZINC000015179664    0.0800
     36 H36        -1.0117    5.0666   49.1928 H       1  ZINC000015179664    0.0800
     37 H37        -0.5775    1.6059   48.8138 H       1  ZINC000015179664    0.1000
     38 H38        -1.7657    0.2841   48.9095 H       1  ZINC000015179664    0.1000
     39 H39        -2.7871    0.8757   46.9288 H       1  ZINC000015179664    0.0800
     40 H40        -2.4731    2.6120   47.1635 H       1  ZINC000015179664    0.0800
     41 H41        -0.0112    1.8417   46.6714 H       1  ZINC000015179664    0.4000
     42 H42         1.6622    1.7924   45.5568 H       1  ZINC000015179664    0.1700
     43 H43         1.5137   -0.0391   41.3243 H       1  ZINC000015179664    0.1700
     44 H44        -0.7443   -0.0913   42.4823 H       1  ZINC000015179664    0.1600
@<TRIPOS>BOND
     1     1     2    1
     2     1    27    1
     3     1    28    1
     4     1    29    1
     5     2     3    1
     6     2     4    1
     7     2    13    1
     8     4    12   ar
     9     4     5   ar
    10     5     6   ar
    11     5    30    1
    12     6     7   ar
    13     6    31    1
    14     7     8   ar
    15     7    32    1
    16     8     9    1
    17     8    12   ar
    18     9    10    2
    19     9    11    2
    20    12    33    1
    21    13    14    1
    22    13    15   am
    23    14    34    1
    24    14    35    1
    25    14    36    1
    26    15    16    2
    27    15    17    1
    28    17    18    1
    29    17    37    1
    30    17    38    1
    31    18    19    1
    32    18    39    1
    33    18    40    1
    34    19    20   am
    35    19    41    1
    36    20    21    2
    37    20    22    1
    38    22    26    1
    39    22    23    2
    40    23    24    1
    41    23    42    1
    42    24    25    1
    43    25    26    2
    44    25    43    1
    45    26    44    1
@<TRIPOS>SUBSTRUCTURE
     1 ZINC000015179664        1 TEMP              0 ****  ****    0 ROOT


##########                                Name:    ZINC000437192871
##########                DOCK_Rotatable_Bonds:                   9
##########                         Heavy_Atoms:                  28
##########                    Molecular_Weight:             423.298
##########                DOCK_Rotatable_Bonds:                   9
##########                       Formal_Charge:         -8.9407e-08
##########                     HBond_Acceptors:                   9
##########                        HBond_Donors:                   1
##########                         Heavy_Atoms:                  28
##########                          Grid_Score:          -32.030437
##########                     Grid_vdw_energy:          -31.507458
##########                      Grid_es_energy:           -0.522981
##########           Internal_energy_repulsive:           14.297194

@<TRIPOS>MOLECULE
ZINC000437192871
 48 50 1 0 0
SMALL
USER_CHARGES


@<TRIPOS>ATOM
      1 C1         -8.5592    0.2267   52.8069 C.3     1  ZINC000437192871   -0.1700
      2 C2        -10.0721    0.2705   53.0315 C.3     1  ZINC000437192871    0.1300
      3 N3        -10.4059   -0.4657   54.2534 N.pl3   1  ZINC000437192871   -0.3600
      4 C4        -10.4578    0.0476   55.5003 C.2     1  ZINC000437192871    0.0700
      5 C5        -10.8007   -0.9529   56.3443 C.2     1  ZINC000437192871   -0.2700
      6 C6        -10.9765   -0.8333   57.8362 C.3     1  ZINC000437192871    0.1900
      7 N7        -11.9120   -1.8603   58.3015 N.am    1  ZINC000437192871   -0.6000
      8 C8        -11.4157   -3.0188   59.0484 C.3     1  ZINC000437192871    0.1100
      9 C9        -11.2997   -2.6583   60.5308 C.3     1  ZINC000437192871    0.0600
     10 O10       -10.2681   -1.6850   60.7051 O.3     1  ZINC000437192871   -0.5600
     11 C11       -13.2290   -1.7393   58.0425 C.2     1  ZINC000437192871    0.6000
     12 O12       -13.6411   -0.7774   57.4227 O.2     1  ZINC000437192871   -0.5000
     13 C13       -14.1694   -2.7717   58.5103 C.2     1  ZINC000437192871   -0.2200
     14 C14       -14.4206   -4.0080   57.9709 C.2     1  ZINC000437192871    0.0100
     15 C15       -13.7755   -4.6048   56.7466 C.3     1  ZINC000437192871   -0.0800
     16 O16       -15.3480   -4.5789   58.7430 O.3     1  ZINC000437192871    0.1100
     17 N17       -15.6979   -3.8837   59.6650 N.2     1  ZINC000437192871   -0.3200
     18 C18       -15.0711   -2.7348   59.6810 C.2     1  ZINC000437192871    0.0800
     19 C19       -15.2364   -1.6311   60.6572 C.ar    1  ZINC000437192871   -0.0200
     20 C20       -14.6008   -1.6922   61.8960 C.ar    1  ZINC000437192871   -0.0700
     21 C21       -14.7573   -0.6623   62.8009 C.ar    1  ZINC000437192871   -0.1000
     22 C22       -15.5441    0.4311   62.4806 C.ar    1  ZINC000437192871   -0.0100
     23 Cl23      -15.7358    1.7232   63.6241 Cl      1  ZINC000437192871   -0.0500
     24 C24       -16.1780    0.4978   61.2518 C.ar    1  ZINC000437192871   -0.1100
     25 C25       -16.0240   -0.5248   60.3367 C.ar    1  ZINC000437192871    0.0000
     26 Cl26      -16.8187   -0.4402   58.7957 Cl      1  ZINC000437192871   -0.0300
     27 C27       -10.9638   -2.1177   55.5872 C.2     1  ZINC000437192871    0.0600
     28 N28       -10.7332   -1.8254   54.3329 N.2     1  ZINC000437192871   -0.2900
     29 H29        -8.3109    0.7744   51.8979 H       1  ZINC000437192871    0.0800
     30 H30        -8.0523    0.6840   53.6566 H       1  ZINC000437192871    0.0600
     31 H31        -8.2367   -0.8097   52.7063 H       1  ZINC000437192871    0.0700
     32 H32       -10.3945    1.3069   53.1321 H       1  ZINC000437192871    0.1000
     33 H33       -10.5789   -0.1869   52.1819 H       1  ZINC000437192871    0.0900
     34 H34       -10.2608    1.0733   55.7755 H       1  ZINC000437192871    0.1600
     35 H35       -10.0132   -0.9698   58.3277 H       1  ZINC000437192871    0.0900
     36 H36       -11.3710    0.1537   58.0776 H       1  ZINC000437192871    0.0800
     37 H37       -12.1091   -3.8515   58.9302 H       1  ZINC000437192871    0.1000
     38 H38       -10.4358   -3.3049   58.6663 H       1  ZINC000437192871    0.1000
     39 H39       -12.2477   -2.2494   60.8805 H       1  ZINC000437192871    0.0600
     40 H40       -11.0562   -3.5527   61.1044 H       1  ZINC000437192871    0.0500
     41 H41        -9.3947   -1.9812   60.4144 H       1  ZINC000437192871    0.3800
     42 H42       -12.9344   -5.2296   57.0473 H       1  ZINC000437192871    0.1000
     43 H43       -14.5053   -5.2113   56.2104 H       1  ZINC000437192871    0.0900
     44 H44       -13.4199   -3.8051   56.0969 H       1  ZINC000437192871    0.0900
     45 H45       -13.9871   -2.5445   62.1475 H       1  ZINC000437192871    0.1600
     46 H46       -14.2653   -0.7094   63.7612 H       1  ZINC000437192871    0.1500
     47 H47       -16.7906    1.3528   61.0068 H       1  ZINC000437192871    0.1500
     48 H48       -11.2376   -3.0893   55.9710 H       1  ZINC000437192871    0.1800
@<TRIPOS>BOND
     1     1     2    1
     2     1    29    1
     3     1    30    1
     4     1    31    1
     5     2     3    1
     6     2    32    1
     7     2    33    1
     8     3    28    1
     9     3     4    1
    10     4     5    2
    11     4    34    1
    12     5     6    1
    13     5    27    1
    14     6     7    1
    15     6    35    1
    16     6    36    1
    17     7     8    1
    18     7    11   am
    19     8     9    1
    20     8    37    1
    21     8    38    1
    22     9    10    1
    23     9    39    1
    24     9    40    1
    25    10    41    1
    26    11    12    2
    27    11    13    1
    28    13    18    1
    29    13    14    2
    30    14    15    1
    31    14    16    1
    32    15    42    1
    33    15    43    1
    34    15    44    1
    35    16    17    1
    36    17    18    2
    37    18    19    1
    38    19    25   ar
    39    19    20   ar
    40    20    21   ar
    41    20    45    1
    42    21    22   ar
    43    21    46    1
    44    22    23    1
    45    22    24   ar
    46    24    25   ar
    47    24    47    1
    48    25    26    1
    49    27    28    2
    50    27    48    1
@<TRIPOS>SUBSTRUCTURE
     1 ZINC000437192871        1 TEMP              0 ****  ****    0 ROOT


##########                                Name:    ZINC000609484313
##########                DOCK_Rotatable_Bonds:                  10
##########                         Heavy_Atoms:                  26
##########                    Molecular_Weight:             361.487
##########                DOCK_Rotatable_Bonds:                  10
##########                       Formal_Charge:          -0.0200004
##########                     HBond_Acceptors:                   7
##########                        HBond_Donors:                   1
##########                         Heavy_Atoms:                  26
##########                          Grid_Score:          -32.022198
##########                     Grid_vdw_energy:          -30.897533
##########                      Grid_es_energy:           -1.124665
##########           Internal_energy_repulsive:           34.232414

@<TRIPOS>MOLECULE
ZINC000609484313
 57 58 1 0 0
SMALL
USER_CHARGES


@<TRIPOS>ATOM
      1 C1        -15.2982   -3.8461   58.6571 C.3     1  ZINC000609484313   -0.1500
      2 C2        -14.5577   -4.7961   57.7137 C.3     1  ZINC000609484313   -0.1300
      3 C3        -13.6543   -3.9870   56.7809 C.3     1  ZINC000609484313   -0.1100
      4 C4        -12.3963   -3.5553   57.5371 C.3     1  ZINC000609484313   -0.1100
      5 C5        -12.3840   -2.0320   57.6790 C.3     1  ZINC000609484313    0.0800
      6 H6        -13.3878   -1.6430   57.5082 H       1  ZINC000609484313    0.1200
      7 C7        -11.9305   -1.6603   59.0671 C.2     1  ZINC000609484313    0.4900
      8 O8        -12.7402   -1.2913   59.8912 O.2     1  ZINC000609484313   -0.5000
      9 N9        -10.6249   -1.7377   59.3929 N.am    1  ZINC000609484313   -0.6300
     10 C10       -10.2054   -1.3952   60.6785 C.2     1  ZINC000609484313    0.2400
     11 N11       -10.9642   -1.0541   61.6868 N.2     1  ZINC000609484313   -0.3900
     12 O12       -10.3078   -0.8135   62.6734 O.3     1  ZINC000609484313    0.1000
     13 C13        -8.9951   -0.9664   62.4461 C.2     1  ZINC000609484313   -0.0200
     14 C14        -7.8792   -0.7555   63.4367 C.3     1  ZINC000609484313   -0.0800
     15 C15        -8.8685   -1.3530   61.1562 C.2     1  ZINC000609484313   -0.2300
     16 N16       -11.4611   -1.4558   56.6917 N.3     1  ZINC000609484313   -0.5000
     17 C17       -11.3583    0.0011   56.8544 C.3     1  ZINC000609484313    0.0400
     18 C18       -10.3305    0.5512   55.8628 C.3     1  ZINC000609484313    0.0500
     19 N19       -10.7395    0.2044   54.4945 N.3     1  ZINC000609484313   -0.5100
     20 C20        -9.8167    0.7806   53.5073 C.3     1  ZINC000609484313    0.1800
     21 H21        -8.9150    1.1276   54.0119 H       1  ZINC000609484313    0.1200
     22 C22        -9.4591   -0.2445   52.5132 C.1     1  ZINC000609484313    0.1700
     23 N23        -9.1832   -1.0356   51.7460 N.1     1  ZINC000609484313   -0.4200
     24 C24       -10.4930    1.9590   52.8040 C.3     1  ZINC000609484313   -0.0800
     25 C25        -9.5068    2.6054   51.8291 C.3     1  ZINC000609484313   -0.1400
     26 C26       -11.7173    1.4591   52.0343 C.3     1  ZINC000609484313   -0.1500
     27 C27       -10.8423   -1.2525   54.3319 C.3     1  ZINC000609484313    0.0500
     28 C28       -11.8701   -1.8025   55.3234 C.3     1  ZINC000609484313    0.0400
     29 H29       -14.5749   -3.2849   59.2486 H       1  ZINC000609484313    0.0500
     30 H30       -15.9052   -3.1543   58.0733 H       1  ZINC000609484313    0.0500
     31 H31       -15.9418   -4.4226   59.3217 H       1  ZINC000609484313    0.0500
     32 H32       -13.9507   -5.4880   58.2975 H       1  ZINC000609484313    0.0600
     33 H33       -15.2810   -5.3575   57.1221 H       1  ZINC000609484313    0.0600
     34 H34       -13.3716   -4.6011   55.9259 H       1  ZINC000609484313    0.0800
     35 H35       -14.1898   -3.1037   56.4326 H       1  ZINC000609484313    0.0600
     36 H36       -12.3924   -4.0123   58.5267 H       1  ZINC000609484313    0.0700
     37 H37       -11.5127   -3.8761   56.9854 H       1  ZINC000609484313    0.0800
     38 H38        -9.9772   -2.0317   58.7335 H       1  ZINC000609484313    0.4200
     39 H39        -8.2976   -0.4512   64.3960 H       1  ZINC000609484313    0.0800
     40 H40        -7.3234   -1.6850   63.5611 H       1  ZINC000609484313    0.0900
     41 H41        -7.2093    0.0219   63.0693 H       1  ZINC000609484313    0.0900
     42 H42        -7.9609   -1.5717   60.6134 H       1  ZINC000609484313    0.1900
     43 H43       -12.3292    0.4578   56.6627 H       1  ZINC000609484313    0.0800
     44 H44       -11.0419    0.2320   57.8717 H       1  ZINC000609484313    0.0800
     45 H45       -10.2736    1.6352   55.9617 H       1  ZINC000609484313    0.0900
     46 H46        -9.3538    0.1148   56.0719 H       1  ZINC000609484313    0.0400
     47 H47       -10.8054    2.6941   53.5457 H       1  ZINC000609484313    0.0800
     48 H48        -9.1944    1.8703   51.0874 H       1  ZINC000609484313    0.0600
     49 H49        -9.9886    3.4450   51.3280 H       1  ZINC000609484313    0.0500
     50 H50        -8.6346    2.9616   52.3774 H       1  ZINC000609484313    0.0700
     51 H51       -12.1446    2.2802   51.4587 H       1  ZINC000609484313    0.0700
     52 H52       -11.4191    0.6579   51.3581 H       1  ZINC000609484313    0.0600
     53 H53       -12.4602    1.0833   52.7378 H       1  ZINC000609484313    0.0500
     54 H54       -11.1586   -1.4834   53.3146 H       1  ZINC000609484313    0.0900
     55 H55        -9.8713   -1.7092   54.5235 H       1  ZINC000609484313    0.0400
     56 H56       -11.9269   -2.8865   55.2245 H       1  ZINC000609484313    0.0800
     57 H57       -12.8469   -1.3662   55.1143 H       1  ZINC000609484313    0.0800
@<TRIPOS>BOND
     1     1     2    1
     2     1    29    1
     3     1    30    1
     4     1    31    1
     5     2     3    1
     6     2    32    1
     7     2    33    1
     8     3     4    1
     9     3    34    1
    10     3    35    1
    11     4     5    1
    12     4    36    1
    13     4    37    1
    14     5     6    1
    15     5     7    1
    16     5    16    1
    17     7     8    2
    18     7     9   am
    19     9    10    1
    20     9    38    1
    21    10    15    1
    22    10    11    2
    23    11    12    1
    24    12    13    1
    25    13    14    1
    26    13    15    2
    27    14    39    1
    28    14    40    1
    29    14    41    1
    30    15    42    1
    31    16    28    1
    32    16    17    1
    33    17    18    1
    34    17    43    1
    35    17    44    1
    36    18    19    1
    37    18    45    1
    38    18    46    1
    39    19    20    1
    40    19    27    1
    41    20    21    1
    42    20    22    1
    43    20    24    1
    44    22    23    3
    45    24    25    1
    46    24    26    1
    47    24    47    1
    48    25    48    1
    49    25    49    1
    50    25    50    1
    51    26    51    1
    52    26    52    1
    53    26    53    1
    54    27    28    1
    55    27    54    1
    56    27    55    1
    57    28    56    1
    58    28    57    1
@<TRIPOS>SUBSTRUCTURE
     1 ZINC000609484313        1 TEMP              0 ****  ****    0 ROOT


##########                                Name:    ZINC000185180600
##########                DOCK_Rotatable_Bonds:                   7
##########                         Heavy_Atoms:                  26
##########                    Molecular_Weight:             395.953
##########                DOCK_Rotatable_Bonds:                   7
##########                       Formal_Charge:          0.00999977
##########                     HBond_Acceptors:                   7
##########                        HBond_Donors:                   0
##########                         Heavy_Atoms:                  26
##########                          Grid_Score:          -32.011543
##########                     Grid_vdw_energy:          -29.271729
##########                      Grid_es_energy:           -2.739815
##########           Internal_energy_repulsive:           20.520288

@<TRIPOS>MOLECULE
ZINC000185180600
 52 53 1 0 0
SMALL
USER_CHARGES


@<TRIPOS>ATOM
      1 C1         -6.6364    3.2321   56.2123 C.3     1  ZINC000185180600   -0.1500
      2 C2         -5.4761    3.1097   55.2225 C.3     1  ZINC000185180600   -0.0900
      3 C3         -5.8715    3.7520   53.8913 C.3     1  ZINC000185180600   -0.1500
      4 C4         -4.2462    3.8231   55.7876 C.3     1  ZINC000185180600   -0.1300
      5 C5         -3.0043    3.3981   55.0016 C.3     1  ZINC000185180600    0.1300
      6 H6         -3.2303    3.4014   53.9354 H       1  ZINC000185180600    0.1100
      7 C7         -2.5867    1.9900   55.4302 C.3     1  ZINC000185180600   -0.1600
      8 N8         -1.9110    4.3352   55.2719 N.am    1  ZINC000185180600   -0.6000
      9 C9         -1.1984    4.2801   56.5507 C.3     1  ZINC000185180600    0.0700
     10 C10        -1.5608    5.2478   54.3441 C.2     1  ZINC000185180600    0.5400
     11 O11        -0.6548    6.0226   54.5674 O.2     1  ZINC000185180600   -0.5300
     12 C12        -2.2950    5.3058   53.0293 C.3     1  ZINC000185180600   -0.5000
     13 S13        -1.7391    3.9454   51.9659 S.o     1  ZINC000185180600    1.3200
     14 O14        -0.3602    4.1120   51.6656 O.2     1  ZINC000185180600   -0.8000
     15 C15        -2.7190    4.1802   50.4574 C.3     1  ZINC000185180600   -0.3900
     16 C16        -2.3663    3.1093   49.4575 C.2     1  ZINC000185180600    0.1000
     17 N17        -1.5372    3.2405   48.4534 N.2     1  ZINC000185180600   -0.2800
     18 N18        -1.4851    2.0208   47.7661 N.pl3   1  ZINC000185180600   -0.3200
     19 C19        -0.7123    1.7468   46.6287 C.ar    1  ZINC000185180600    0.1700
     20 C20         0.6175    2.1426   46.5798 C.ar    1  ZINC000185180600   -0.1300
     21 C21         1.3767    1.8717   45.4584 C.ar    1  ZINC000185180600   -0.0800
     22 C22         0.8126    1.2066   44.3837 C.ar    1  ZINC000185180600   -0.0500
     23 Cl23        1.7695    0.8674   42.9755 Cl      1  ZINC000185180600   -0.0600
     24 C24        -0.5127    0.8110   44.4302 C.ar    1  ZINC000185180600   -0.0800
     25 C25        -1.2742    1.0743   45.5520 C.ar    1  ZINC000185180600   -0.1100
     26 C26        -2.3121    1.1547   48.3939 C.2     1  ZINC000185180600    0.0600
     27 C27        -2.8642    1.8018   49.4465 C.2     1  ZINC000185180600   -0.2500
     28 H28        -7.5126    2.7240   55.8097 H       1  ZINC000185180600    0.0500
     29 H29        -6.3547    2.7746   57.1606 H       1  ZINC000185180600    0.0600
     30 H30        -6.8684    4.2852   56.3717 H       1  ZINC000185180600    0.0500
     31 H31        -5.2441    2.0567   55.0631 H       1  ZINC000185180600    0.0700
     32 H32        -6.6955    3.1925   53.4484 H       1  ZINC000185180600    0.0500
     33 H33        -6.1830    4.7824   54.0633 H       1  ZINC000185180600    0.0500
     34 H34        -5.0178    3.7388   53.2138 H       1  ZINC000185180600    0.0500
     35 H35        -4.3799    4.9014   55.7008 H       1  ZINC000185180600    0.0700
     36 H36        -4.1212    3.5558   56.8368 H       1  ZINC000185180600    0.0800
     37 H37        -2.3606    1.9868   56.4965 H       1  ZINC000185180600    0.0600
     38 H38        -3.4001    1.2929   55.2291 H       1  ZINC000185180600    0.0700
     39 H39        -1.7018    1.6872   54.8703 H       1  ZINC000185180600    0.0600
     40 H40        -0.3509    3.6000   56.4653 H       1  ZINC000185180600    0.0600
     41 H41        -0.8400    5.2762   56.8101 H       1  ZINC000185180600    0.0700
     42 H42        -1.8739    3.9230   57.3280 H       1  ZINC000185180600    0.0800
     43 H43        -3.3665    5.2135   53.2072 H       1  ZINC000185180600    0.1500
     44 H44        -2.0886    6.2575   52.5396 H       1  ZINC000185180600    0.1200
     45 H45        -3.7798    4.1161   50.6995 H       1  ZINC000185180600    0.1400
     46 H46        -2.5019    5.1601   50.0320 H       1  ZINC000185180600    0.1000
     47 H47         1.0579    2.6624   47.4179 H       1  ZINC000185180600    0.1400
     48 H48         2.4111    2.1794   45.4198 H       1  ZINC000185180600    0.1500
     49 H49        -0.9508    0.2925   43.5902 H       1  ZINC000185180600    0.1400
     50 H50        -2.3084    0.7654   45.5877 H       1  ZINC000185180600    0.1500
     51 H51        -2.4955    0.1290   48.1094 H       1  ZINC000185180600    0.1800
     52 H52        -3.5704    1.3849   50.1492 H       1  ZINC000185180600    0.1700
@<TRIPOS>BOND
     1     1     2    1
     2     1    28    1
     3     1    29    1
     4     1    30    1
     5     2     3    1
     6     2     4    1
     7     2    31    1
     8     3    32    1
     9     3    33    1
    10     3    34    1
    11     4     5    1
    12     4    35    1
    13     4    36    1
    14     5     6    1
    15     5     7    1
    16     5     8    1
    17     7    37    1
    18     7    38    1
    19     7    39    1
    20     8     9    1
    21     8    10   am
    22     9    40    1
    23     9    41    1
    24     9    42    1
    25    10    11    2
    26    10    12    1
    27    12    13    1
    28    12    43    1
    29    12    44    1
    30    13    14    2
    31    13    15    1
    32    15    16    1
    33    15    45    1
    34    15    46    1
    35    16    27    1
    36    16    17    2
    37    17    18    1
    38    18    19    1
    39    18    26    1
    40    19    25   ar
    41    19    20   ar
    42    20    21   ar
    43    20    47    1
    44    21    22   ar
    45    21    48    1
    46    22    23    1
    47    22    24   ar
    48    24    25   ar
    49    24    49    1
    50    25    50    1
    51    26    27    2
    52    26    51    1
    53    27    52    1
@<TRIPOS>SUBSTRUCTURE
     1 ZINC000185180600        1 TEMP              0 ****  ****    0 ROOT


##########                                Name:    ZINC000624498741
##########                DOCK_Rotatable_Bonds:                   7
##########                         Heavy_Atoms:                  27
##########                    Molecular_Weight:             379.339
##########                DOCK_Rotatable_Bonds:                   7
##########                       Formal_Charge:           0.0300003
##########                     HBond_Acceptors:                   9
##########                        HBond_Donors:                   0
##########                         Heavy_Atoms:                  27
##########                          Grid_Score:          -31.959988
##########                     Grid_vdw_energy:          -29.106440
##########                      Grid_es_energy:           -2.853547
##########           Internal_energy_repulsive:            7.549651

@<TRIPOS>MOLECULE
ZINC000624498741
 43 45 1 0 0
SMALL
USER_CHARGES


@<TRIPOS>ATOM
      1 C1        -11.6066   -2.0454   55.6332 C.3     1  ZINC000624498741   -0.1100
      2 C2        -11.5754   -2.1115   57.1385 C.ar    1  ZINC000624498741   -0.0900
      3 C3        -10.4788   -1.6391   57.8251 C.ar    1  ZINC000624498741   -0.0400
      4 C4        -10.4511   -1.7005   59.2206 C.ar    1  ZINC000624498741   -0.0500
      5 C5         -9.2777   -1.1947   59.9606 C.2     1  ZINC000624498741    0.2300
      6 N6         -9.0780   -1.2621   61.2657 N.2     1  ZINC000624498741   -0.4700
      7 C7         -7.8876   -0.6798   61.4778 C.2     1  ZINC000624498741    0.1800
      8 C8         -7.2074   -0.5055   62.8111 C.3     1  ZINC000624498741   -0.0300
      9 C9         -8.1830    0.1329   63.8017 C.3     1  ZINC000624498741   -0.1300
     10 C10        -7.5062    0.2714   65.1669 C.3     1  ZINC000624498741    0.0900
     11 N11        -8.4404    0.8827   66.1155 N.am    1  ZINC000624498741   -0.5000
     12 C12        -8.4795    2.2338   66.2427 C.2     1  ZINC000624498741    0.1300
     13 C13        -9.3338    2.8215   67.1125 C.2     1  ZINC000624498741   -0.2300
     14 C14       -10.1904    2.0327   67.8933 C.2     1  ZINC000624498741   -0.0200
     15 C15       -10.1498    0.6755   67.7638 C.2     1  ZINC000624498741   -0.2400
     16 C16        -9.2543    0.0984   66.8473 C.2     1  ZINC000624498741    0.5100
     17 O17        -9.2077   -1.1148   66.7214 O.2     1  ZINC000624498741   -0.5500
     18 N18        -7.4269   -0.2938   60.3245 N.2     1  ZINC000624498741   -0.3700
     19 O19        -8.2034   -0.5822   59.4387 O.3     1  ZINC000624498741    0.0900
     20 C20       -11.5364   -2.2412   59.9138 C.ar    1  ZINC000624498741   -0.0200
     21 C21       -12.6295   -2.7116   59.2195 C.ar    1  ZINC000624498741   -0.1900
     22 C22       -12.6554   -2.6439   57.8321 C.ar    1  ZINC000624498741    0.1300
     23 O23       -13.7345   -3.1087   57.1517 O.3     1  ZINC000624498741   -0.3000
     24 C24       -13.9603   -4.5195   57.1788 C.3     1  ZINC000624498741    0.6000
     25 F25       -14.9072   -4.8213   58.1634 F       1  ZINC000624498741   -0.1600
     26 F26       -14.4344   -4.9400   55.9315 F       1  ZINC000624498741   -0.1300
     27 F27       -12.7606   -5.1783   57.4679 F       1  ZINC000624498741   -0.1600
     28 H28       -12.0420   -1.0964   55.3202 H       1  ZINC000624498741    0.0800
     29 H29       -10.5912   -2.1249   55.2449 H       1  ZINC000624498741    0.0800
     30 H30       -12.2092   -2.8669   55.2458 H       1  ZINC000624498741    0.0800
     31 H31        -9.6414   -1.2221   57.2855 H       1  ZINC000624498741    0.1500
     32 H32        -6.8918   -1.4784   63.1879 H       1  ZINC000624498741    0.1000
     33 H33        -6.3360    0.1386   62.6931 H       1  ZINC000624498741    0.1000
     34 H34        -8.4756    1.1186   63.4396 H       1  ZINC000624498741    0.0800
     35 H35        -9.0679   -0.4965   63.8972 H       1  ZINC000624498741    0.0800
     36 H36        -7.2136   -0.7141   65.5290 H       1  ZINC000624498741    0.1100
     37 H37        -6.6213    0.9008   65.0715 H       1  ZINC000624498741    0.1000
     38 H38        -7.8219    2.8461   65.6435 H       1  ZINC000624498741    0.1600
     39 H39        -9.3553    3.8974   67.2054 H       1  ZINC000624498741    0.1500
     40 H40       -10.8745    2.4946   68.5898 H       1  ZINC000624498741    0.1400
     41 H41       -10.8019    0.0511   68.3566 H       1  ZINC000624498741    0.1500
     42 H42       -11.5186   -2.2908   60.9925 H       1  ZINC000624498741    0.1500
     43 H43       -13.4691   -3.1302   59.7548 H       1  ZINC000624498741    0.1500
@<TRIPOS>BOND
     1     1     2    1
     2     1    28    1
     3     1    29    1
     4     1    30    1
     5     2    22   ar
     6     2     3   ar
     7     3     4   ar
     8     3    31    1
     9     4     5    1
    10     4    20   ar
    11     5    19    1
    12     5     6    2
    13     6     7    1
    14     7     8    1
    15     7    18    2
    16     8     9    1
    17     8    32    1
    18     8    33    1
    19     9    10    1
    20     9    34    1
    21     9    35    1
    22    10    11    1
    23    10    36    1
    24    10    37    1
    25    11    16   am
    26    11    12    1
    27    12    13    2
    28    12    38    1
    29    13    14    1
    30    13    39    1
    31    14    15    2
    32    14    40    1
    33    15    16    1
    34    15    41    1
    35    16    17    2
    36    18    19    1
    37    20    21   ar
    38    20    42    1
    39    21    22   ar
    40    21    43    1
    41    22    23    1
    42    23    24    1
    43    24    25    1
    44    24    26    1
    45    24    27    1
@<TRIPOS>SUBSTRUCTURE
     1 ZINC000624498741        1 TEMP              0 ****  ****    0 ROOT


##########                                Name:    ZINC000962855438
##########                DOCK_Rotatable_Bonds:                   7
##########                         Heavy_Atoms:                  27
##########                    Molecular_Weight:             370.448
##########                DOCK_Rotatable_Bonds:                   7
##########                       Formal_Charge:           0.0300005
##########                     HBond_Acceptors:                   6
##########                        HBond_Donors:                   2
##########                         Heavy_Atoms:                  27
##########                          Grid_Score:          -31.956610
##########                     Grid_vdw_energy:          -31.146843
##########                      Grid_es_energy:           -0.809767
##########           Internal_energy_repulsive:            8.801896

@<TRIPOS>MOLECULE
ZINC000962855438
 53 56 1 0 0
SMALL
USER_CHARGES


@<TRIPOS>ATOM
      1 C1        -18.1920   -3.3211   46.8152 C.3     1  ZINC000962855438   -0.1100
      2 C2        -16.8013   -3.7402   46.4133 C.2     1  ZINC000962855438   -0.1700
      3 C3        -15.6666   -2.8303   46.6328 C.2     1  ZINC000962855438    0.5600
      4 O4        -14.6956   -2.8818   45.9023 O.2     1  ZINC000962855438   -0.5400
      5 N5        -15.7029   -1.9394   47.6436 N.am    1  ZINC000962855438   -0.7100
      6 C6        -14.5720   -1.0343   47.8633 C.3     1  ZINC000962855438    0.1500
      7 H7        -13.6280   -1.5303   47.6381 H       1  ZINC000962855438    0.1200
      8 C8        -14.5772   -0.4805   49.3099 C.3     1  ZINC000962855438    0.1000
      9 N9        -13.8446    0.7963   49.2277 N.am    1  ZINC000962855438   -0.6100
     10 C10       -13.2049    1.4019   50.2478 C.2     1  ZINC000962855438    0.5800
     11 O11       -12.6302    2.4575   50.0640 O.2     1  ZINC000962855438   -0.5200
     12 C12       -13.2018    0.7837   51.5874 C.ar    1  ZINC000962855438   -0.1500
     13 C13       -14.3945    0.6518   52.2986 C.ar    1  ZINC000962855438   -0.0600
     14 C14       -14.3946    0.0755   53.5507 C.ar    1  ZINC000962855438   -0.1500
     15 C15       -13.2066   -0.3712   54.1075 C.ar    1  ZINC000962855438   -0.0500
     16 C16       -12.0230   -0.2432   53.4153 C.ar    1  ZINC000962855438   -0.1800
     17 C17       -11.9969    0.3212   52.1471 C.ar    1  ZINC000962855438    0.1600
     18 O18       -10.7378    0.3308   51.6368 O.3     1  ZINC000962855438   -0.2800
     19 C19        -9.7908    0.1795   52.7080 C.3     1  ZINC000962855438    0.0700
     20 H20        -9.4922    1.1518   53.0999 H       1  ZINC000962855438    0.0900
     21 C21        -8.5680   -0.6138   52.2427 C.3     1  ZINC000962855438   -0.1500
     22 C22       -10.5954   -0.6195   53.7629 C.3     1  ZINC000962855438   -0.1100
     23 C23       -13.9269    1.2991   47.8487 C.3     1  ZINC000962855438    0.0700
     24 C24       -14.7299    0.2653   47.0305 C.3     1  ZINC000962855438    0.0900
     25 H25       -14.3001    0.1422   46.0364 H       1  ZINC000962855438    0.0900
     26 O26       -16.1039    0.6482   46.9415 O.3     1  ZINC000962855438   -0.5600
     27 C27       -16.6000   -4.9328   45.8603 C.2     1  ZINC000962855438   -0.0600
     28 C28       -15.4106   -5.7112   45.3388 C.3     1  ZINC000962855438   -0.1000
     29 C29       -16.3902   -6.4566   44.4188 C.3     1  ZINC000962855438   -0.1400
     30 C30       -17.4569   -6.1208   45.4772 C.3     1  ZINC000962855438   -0.1100
     31 H31       -18.6737   -2.8126   45.9801 H       1  ZINC000962855438    0.0700
     32 H32       -18.7725   -4.2025   47.0877 H       1  ZINC000962855438    0.0700
     33 H33       -18.1354   -2.6451   47.6684 H       1  ZINC000962855438    0.0700
     34 H34       -16.4778   -1.8975   48.2255 H       1  ZINC000962855438    0.4100
     35 H35       -15.5995   -0.3102   49.6474 H       1  ZINC000962855438    0.0800
     36 H36       -14.0648   -1.1692   49.9817 H       1  ZINC000962855438    0.0900
     37 H37       -15.3203    1.0023   51.8671 H       1  ZINC000962855438    0.1400
     38 H38       -15.3200   -0.0275   54.0979 H       1  ZINC000962855438    0.1400
     39 H39       -13.2090   -0.8214   55.0892 H       1  ZINC000962855438    0.1300
     40 H40        -8.0710   -0.0753   51.4359 H       1  ZINC000962855438    0.0700
     41 H41        -7.8769   -0.7382   53.0763 H       1  ZINC000962855438    0.0800
     42 H42        -8.8851   -1.5932   51.8845 H       1  ZINC000962855438    0.0700
     43 H43       -10.3453   -0.2935   54.7724 H       1  ZINC000962855438    0.1000
     44 H44       -10.4307   -1.6909   53.6490 H       1  ZINC000962855438    0.1000
     45 H45       -14.4385    2.2615   47.8349 H       1  ZINC000962855438    0.0800
     46 H46       -12.9252    1.4035   47.4318 H       1  ZINC000962855438    0.0800
     47 H47       -16.3069    1.2107   46.1817 H       1  ZINC000962855438    0.3900
     48 H48       -14.6895   -5.0961   44.8004 H       1  ZINC000962855438    0.0900
     49 H49       -14.9453   -6.3504   46.0891 H       1  ZINC000962855438    0.1000
     50 H50       -16.5493   -5.9686   43.4573 H       1  ZINC000962855438    0.0900
     51 H51       -16.1840   -7.5230   44.3280 H       1  ZINC000962855438    0.0800
     52 H52       -17.5433   -6.8721   46.2623 H       1  ZINC000962855438    0.1000
     53 H53       -18.4203   -5.8407   45.0512 H       1  ZINC000962855438    0.0800
@<TRIPOS>BOND
     1     1     2    1
     2     1    31    1
     3     1    32    1
     4     1    33    1
     5     2     3    1
     6     2    27    2
     7     3     4    2
     8     3     5   am
     9     5     6    1
    10     5    34    1
    11     6     7    1
    12     6    24    1
    13     6     8    1
    14     8     9    1
    15     8    35    1
    16     8    36    1
    17     9    10   am
    18     9    23    1
    19    10    11    2
    20    10    12    1
    21    12    17   ar
    22    12    13   ar
    23    13    14   ar
    24    13    37    1
    25    14    15   ar
    26    14    38    1
    27    15    16   ar
    28    15    39    1
    29    16    22    1
    30    16    17   ar
    31    17    18    1
    32    18    19    1
    33    19    20    1
    34    19    21    1
    35    19    22    1
    36    21    40    1
    37    21    41    1
    38    21    42    1
    39    22    43    1
    40    22    44    1
    41    23    24    1
    42    23    45    1
    43    23    46    1
    44    24    25    1
    45    24    26    1
    46    26    47    1
    47    27    30    1
    48    27    28    1
    49    28    29    1
    50    28    48    1
    51    28    49    1
    52    29    30    1
    53    29    50    1
    54    29    51    1
    55    30    52    1
    56    30    53    1
@<TRIPOS>SUBSTRUCTURE
     1 ZINC000962855438        1 TEMP              0 ****  ****    0 ROOT


##########                                Name:    ZINC000450219577
##########                DOCK_Rotatable_Bonds:                   8
##########                         Heavy_Atoms:                  26
##########                    Molecular_Weight:             353.421
##########                DOCK_Rotatable_Bonds:                   8
##########                       Formal_Charge:          -0.0199997
##########                     HBond_Acceptors:                   6
##########                        HBond_Donors:                   1
##########                         Heavy_Atoms:                  26
##########                          Grid_Score:          -31.947762
##########                     Grid_vdw_energy:          -29.733784
##########                      Grid_es_energy:           -2.213978
##########           Internal_energy_repulsive:           24.885447

@<TRIPOS>MOLECULE
ZINC000450219577
 49 51 1 0 0
SMALL
USER_CHARGES


@<TRIPOS>ATOM
      1 C1         -1.3413    5.1820   55.6501 C.3     1  ZINC000450219577   -0.1800
      2 C2         -1.2167    3.6583   55.5895 C.3     1  ZINC000450219577    0.1200
      3 C3          0.2620    3.2694   55.5328 C.3     1  ZINC000450219577   -0.1800
      4 C4         -1.8581    3.0442   56.8354 C.3     1  ZINC000450219577   -0.1400
      5 O5         -1.8929    3.1642   54.4034 O.3     1  ZINC000450219577   -0.3400
      6 C6         -1.6739    3.8265   53.2566 C.2     1  ZINC000450219577    0.4700
      7 O7         -0.5617    4.2128   52.9851 O.2     1  ZINC000450219577   -0.5000
      8 C8         -2.8151    4.0881   52.3079 C.3     1  ZINC000450219577    0.2000
      9 H9         -2.8429    5.1483   52.0565 H       1  ZINC000450219577    0.1400
     10 N10        -2.6250    3.3016   51.0866 N.am    1  ZINC000450219577   -0.7100
     11 C11        -2.2903    3.9160   49.9346 C.2     1  ZINC000450219577    0.5800
     12 O12        -2.1477    5.1228   49.9087 O.2     1  ZINC000450219577   -0.5200
     13 C13        -2.0967    3.1222   48.7027 C.ar    1  ZINC000450219577   -0.2500
     14 C14        -2.2992    1.7375   48.6998 C.ar    1  ZINC000450219577    0.1900
     15 N15        -2.1152    1.0670   47.5760 N.ar    1  ZINC000450219577   -0.5100
     16 C16        -1.7468    1.6839   46.4703 C.ar    1  ZINC000450219577    0.3800
     17 C17        -1.5499    0.8748   45.2144 C.3     1  ZINC000450219577   -0.1100
     18 C18        -0.1137    0.6466   44.7388 C.3     1  ZINC000450219577   -0.1500
     19 C19        -0.9069   -0.5063   45.3572 C.3     1  ZINC000450219577   -0.1500
     20 N20        -1.5456    2.9866   46.4285 N.ar    1  ZINC000450219577   -0.5200
     21 C21        -1.7115    3.7350   47.5049 C.ar    1  ZINC000450219577    0.2200
     22 C22        -4.1136    3.6929   52.9628 C.ar    1  ZINC000450219577   -0.1100
     23 C23        -4.7816    2.5575   52.5437 C.ar    1  ZINC000450219577   -0.1000
     24 C24        -5.9725    2.1949   53.1445 C.ar    1  ZINC000450219577   -0.1200
     25 C25        -6.4954    2.9675   54.1646 C.ar    1  ZINC000450219577   -0.1100
     26 C26        -5.8270    4.1024   54.5843 C.ar    1  ZINC000450219577   -0.1200
     27 C27        -4.6338    4.4626   53.9865 C.ar    1  ZINC000450219577   -0.0800
     28 H28        -0.8843    5.6195   54.7625 H       1  ZINC000450219577    0.0800
     29 H29        -2.3947    5.4590   55.6905 H       1  ZINC000450219577    0.0600
     30 H30        -0.8337    5.5529   56.5405 H       1  ZINC000450219577    0.0700
     31 H31         0.7696    3.6403   56.4232 H       1  ZINC000450219577    0.0700
     32 H32         0.3508    2.1838   55.4897 H       1  ZINC000450219577    0.0600
     33 H33         0.7190    3.7069   54.6452 H       1  ZINC000450219577    0.0800
     34 H34        -2.9116    3.3212   56.8758 H       1  ZINC000450219577    0.0700
     35 H35        -1.7693    1.9587   56.7922 H       1  ZINC000450219577    0.0700
     36 H36        -1.3505    3.4152   57.7258 H       1  ZINC000450219577    0.0800
     37 H37        -2.7399    2.3387   51.1070 H       1  ZINC000450219577    0.4100
     38 H38        -2.6005    1.2250   49.6014 H       1  ZINC000450219577    0.1700
     39 H39        -2.3197    0.9951   44.4520 H       1  ZINC000450219577    0.1300
     40 H40         0.0617    0.6170   43.6633 H       1  ZINC000450219577    0.1000
     41 H41         0.6888    1.0819   45.3343 H       1  ZINC000450219577    0.1100
     42 H42        -0.6263   -0.8295   46.3596 H       1  ZINC000450219577    0.1000
     43 H43        -1.2535   -1.2944   44.6887 H       1  ZINC000450219577    0.1100
     44 H44        -1.5448    4.8012   47.4629 H       1  ZINC000450219577    0.1800
     45 H45        -4.3731    1.9539   51.7467 H       1  ZINC000450219577    0.1200
     46 H46        -6.4948    1.3083   52.8166 H       1  ZINC000450219577    0.1200
     47 H47        -7.4263    2.6846   54.6334 H       1  ZINC000450219577    0.1300
     48 H48        -6.2356    4.7061   55.3811 H       1  ZINC000450219577    0.1300
     49 H49        -4.1116    5.3492   54.3143 H       1  ZINC000450219577    0.1300
@<TRIPOS>BOND
     1     1     2    1
     2     1    28    1
     3     1    29    1
     4     1    30    1
     5     2     3    1
     6     2     4    1
     7     2     5    1
     8     3    31    1
     9     3    32    1
    10     3    33    1
    11     4    34    1
    12     4    35    1
    13     4    36    1
    14     5     6    1
    15     6     7    2
    16     6     8    1
    17     8     9    1
    18     8    10    1
    19     8    22    1
    20    10    11   am
    21    10    37    1
    22    11    12    2
    23    11    13    1
    24    13    21   ar
    25    13    14   ar
    26    14    15   ar
    27    14    38    1
    28    15    16   ar
    29    16    17    1
    30    16    20   ar
    31    17    19    1
    32    17    18    1
    33    17    39    1
    34    18    19    1
    35    18    40    1
    36    18    41    1
    37    19    42    1
    38    19    43    1
    39    20    21   ar
    40    21    44    1
    41    22    27   ar
    42    22    23   ar
    43    23    24   ar
    44    23    45    1
    45    24    25   ar
    46    24    46    1
    47    25    26   ar
    48    25    47    1
    49    26    27   ar
    50    26    48    1
    51    27    49    1
@<TRIPOS>SUBSTRUCTURE
     1 ZINC000450219577        1 TEMP              0 ****  ****    0 ROOT


##########                                Name:    ZINC000918875053
##########                DOCK_Rotatable_Bonds:                   6
##########                         Heavy_Atoms:                  26
##########                    Molecular_Weight:             359.357
##########                DOCK_Rotatable_Bonds:                   6
##########                       Formal_Charge:           0.0200003
##########                     HBond_Acceptors:                   8
##########                        HBond_Donors:                   0
##########                         Heavy_Atoms:                  26
##########                          Grid_Score:          -31.934414
##########                     Grid_vdw_energy:          -31.026222
##########                      Grid_es_energy:           -0.908192
##########           Internal_energy_repulsive:            7.226023

@<TRIPOS>MOLECULE
ZINC000918875053
 44 47 1 0 0
SMALL
USER_CHARGES


@<TRIPOS>ATOM
      1 C1         -2.9575    2.5150   55.7895 C.3     1  ZINC000918875053   -0.1700
      2 C2         -3.6429    3.4182   54.7621 C.3     1  ZINC000918875053    0.1900
      3 H3         -3.5357    4.4597   55.0652 H       1  ZINC000918875053    0.1400
      4 O4         -3.0263    3.2266   53.4615 O.3     1  ZINC000918875053   -0.3400
      5 C5         -3.0684    4.2624   52.6087 C.2     1  ZINC000918875053    0.4800
      6 O6         -3.7724    5.2145   52.8490 O.2     1  ZINC000918875053   -0.4900
      7 C7         -2.2377    4.2377   51.3516 C.3     1  ZINC000918875053   -0.0900
      8 H8         -2.2583    5.2071   50.8538 H       1  ZINC000918875053    0.1400
      9 C9         -0.7854    3.8030   51.6565 C.3     1  ZINC000918875053   -0.1400
     10 C10        -0.3926    2.9592   50.4639 C.2     1  ZINC000918875053    0.5300
     11 O11         0.7449    2.6565   50.1714 O.2     1  ZINC000918875053   -0.5000
     12 N12        -1.4877    2.5934   49.7756 N.am    1  ZINC000918875053   -0.5800
     13 C13        -1.4661    1.8138   48.6124 C.ar    1  ZINC000918875053    0.1000
     14 C14        -1.5094    0.4297   48.7020 C.ar    1  ZINC000918875053   -0.0800
     15 C15        -1.4884   -0.3371   47.5526 C.ar    1  ZINC000918875053   -0.1200
     16 C16        -1.4240    0.2722   46.3134 C.ar    1  ZINC000918875053   -0.0800
     17 C17        -1.3808    1.6514   46.2188 C.ar    1  ZINC000918875053   -0.1500
     18 C18        -1.4072    2.4252   47.3644 C.ar    1  ZINC000918875053    0.1100
     19 F19        -1.3654    3.7723   47.2722 F       1  ZINC000918875053   -0.1300
     20 C20        -2.7096    3.1168   50.3992 C.3     1  ZINC000918875053    0.1200
     21 C21        -5.1060    3.0666   54.6811 C.2     1  ZINC000918875053    0.1800
     22 N22        -5.8291    2.9794   53.5906 N.2     1  ZINC000918875053   -0.4600
     23 C23        -7.0648    2.6430   54.0014 C.2     1  ZINC000918875053    0.2100
     24 C24        -8.2675    2.4205   53.1212 C.3     1  ZINC000918875053   -0.0900
     25 C25        -8.3583    1.0895   52.3721 C.3     1  ZINC000918875053   -0.1600
     26 C26        -9.2799    1.3618   53.5627 C.3     1  ZINC000918875053   -0.1500
     27 N27        -7.0309    2.5447   55.2966 N.2     1  ZINC000918875053   -0.3700
     28 O28        -5.9134    2.7785   55.7064 O.3     1  ZINC000918875053    0.1000
     29 H29        -1.8992    2.7693   55.8481 H       1  ZINC000918875053    0.0900
     30 H30        -3.4204    2.6588   56.7657 H       1  ZINC000918875053    0.0900
     31 H31        -3.0647    1.4735   55.4864 H       1  ZINC000918875053    0.0800
     32 H32        -0.1356    4.6742   51.7381 H       1  ZINC000918875053    0.1300
     33 H33        -0.7483    3.2113   52.5712 H       1  ZINC000918875053    0.1100
     34 H34        -1.5589   -0.0480   49.6694 H       1  ZINC000918875053    0.1400
     35 H35        -1.5220   -1.4144   47.6226 H       1  ZINC000918875053    0.1400
     36 H36        -1.4071   -0.3300   45.4172 H       1  ZINC000918875053    0.1400
     37 H37        -1.3305    2.1244   45.2492 H       1  ZINC000918875053    0.1400
     38 H38        -3.2122    2.3305   50.9625 H       1  ZINC000918875053    0.1000
     39 H39        -3.3770    3.5225   49.6389 H       1  ZINC000918875053    0.1000
     40 H40        -8.6537    3.3080   52.6197 H       1  ZINC000918875053    0.1400
     41 H41        -8.8041    1.1010   51.3775 H       1  ZINC000918875053    0.1100
     42 H42        -7.5480    0.3748   52.5160 H       1  ZINC000918875053    0.1000
     43 H43        -9.0760    0.8262   54.4899 H       1  ZINC000918875053    0.1000
     44 H44       -10.3320    1.5525   53.3513 H       1  ZINC000918875053    0.1100
@<TRIPOS>BOND
     1     1     2    1
     2     1    29    1
     3     1    30    1
     4     1    31    1
     5     2     3    1
     6     2     4    1
     7     2    21    1
     8     4     5    1
     9     5     6    2
    10     5     7    1
    11     7     8    1
    12     7    20    1
    13     7     9    1
    14     9    10    1
    15     9    32    1
    16     9    33    1
    17    10    11    2
    18    10    12   am
    19    12    13    1
    20    12    20    1
    21    13    18   ar
    22    13    14   ar
    23    14    15   ar
    24    14    34    1
    25    15    16   ar
    26    15    35    1
    27    16    17   ar
    28    16    36    1
    29    17    18   ar
    30    17    37    1
    31    18    19    1
    32    20    38    1
    33    20    39    1
    34    21    28    1
    35    21    22    2
    36    22    23    1
    37    23    24    1
    38    23    27    2
    39    24    26    1
    40    24    25    1
    41    24    40    1
    42    25    26    1
    43    25    41    1
    44    25    42    1
    45    26    43    1
    46    26    44    1
    47    27    28    1
@<TRIPOS>SUBSTRUCTURE
     1 ZINC000918875053        1 TEMP              0 ****  ****    0 ROOT


##########                                Name:    ZINC000466160459
##########                DOCK_Rotatable_Bonds:                   9
##########                         Heavy_Atoms:                  30
##########                    Molecular_Weight:             420.512
##########                DOCK_Rotatable_Bonds:                   9
##########                       Formal_Charge:          -0.0300007
##########                     HBond_Acceptors:                  10
##########                        HBond_Donors:                   2
##########                         Heavy_Atoms:                  30
##########                          Grid_Score:          -31.930742
##########                     Grid_vdw_energy:          -31.771887
##########                      Grid_es_energy:           -0.158855
##########           Internal_energy_repulsive:           99.129005

@<TRIPOS>MOLECULE
ZINC000466160459
 62 64 1 0 0
SMALL
USER_CHARGES


@<TRIPOS>ATOM
      1 C1         -8.3496   -0.4121   51.6512 C.3     1  ZINC000466160459    0.0300
      2 O2         -9.6637    0.1134   51.8491 O.3     1  ZINC000466160459   -0.3900
      3 C3        -10.4483   -0.6223   52.7898 C.3     1  ZINC000466160459    0.0500
      4 C4         -9.8149   -0.5131   54.1783 C.3     1  ZINC000466160459    0.1200
      5 N5         -9.8201    0.8873   54.6086 N.am    1  ZINC000466160459   -0.7300
      6 C6         -9.8623    1.1887   55.9215 C.2     1  ZINC000466160459    0.5200
      7 O7         -9.8945    0.3006   56.7468 O.2     1  ZINC000466160459   -0.5200
      8 C8         -9.8695    2.6293   56.3641 C.3     1  ZINC000466160459   -0.1300
      9 H9        -10.8773    3.0338   56.2698 H       1  ZINC000466160459    0.1100
     10 C10        -8.9103    3.4379   55.4875 C.3     1  ZINC000466160459   -0.1000
     11 C11        -7.5014    2.8498   55.5932 C.3     1  ZINC000466160459   -0.1500
     12 C12        -7.0221    2.9406   57.0454 C.3     1  ZINC000466160459    0.1600
     13 H13        -6.9178    3.9873   57.3310 H       1  ZINC000466160459    0.0700
     14 C14        -5.6725    2.2338   57.1852 C.3     1  ZINC000466160459   -0.1400
     15 N15        -8.0141    2.2900   57.9123 N.am    1  ZINC000466160459   -0.6200
     16 C16        -7.6440    1.3198   58.7715 C.2     1  ZINC000466160459    0.7100
     17 O17        -6.4797    0.9753   58.8346 O.2     1  ZINC000466160459   -0.5500
     18 N18        -8.5646    0.7315   59.5608 N.am    1  ZINC000466160459   -0.7300
     19 C19        -8.1624   -0.3231   60.4947 C.3     1  ZINC000466160459    0.1600
     20 H20        -7.0826   -0.4618   60.4409 H       1  ZINC000466160459    0.1300
     21 C21        -8.8626   -1.6308   60.1173 C.3     1  ZINC000466160459   -0.1400
     22 C22       -10.3506   -1.5015   60.4641 C.3     1  ZINC000466160459   -0.1400
     23 C23       -10.4946   -1.4297   61.9848 C.3     1  ZINC000466160459    0.1100
     24 N24        -9.6035   -0.4156   62.5343 N.am    1  ZINC000466160459   -0.5200
     25 C25        -9.8776    0.0734   63.8188 C.2     1  ZINC000466160459    0.2800
     26 N26        -9.2411   -0.2516   64.9194 N.2     1  ZINC000466160459   -0.2600
     27 N27        -9.8194    0.4533   65.9827 N.pl3   1  ZINC000466160459   -0.3800
     28 C28        -9.4086    0.3820   67.3871 C.3     1  ZINC000466160459    0.1000
     29 C29       -10.8212    1.2101   65.4871 C.2     1  ZINC000466160459    0.0700
     30 C30       -10.8773    1.0012   64.1521 C.2     1  ZINC000466160459   -0.2900
     31 C31        -8.5452    0.0748   61.8913 C.2     1  ZINC000466160459    0.4900
     32 O32        -7.8508    0.8872   62.4649 O.2     1  ZINC000466160459   -0.4700
     33 C33        -9.4179    2.7174   57.8253 C.3     1  ZINC000466160459    0.1200
     34 H34        -7.8186    0.2018   50.9236 H       1  ZINC000466160459    0.0900
     35 H35        -7.8087   -0.4036   52.5974 H       1  ZINC000466160459    0.0400
     36 H36        -8.4193   -1.4351   51.2816 H       1  ZINC000466160459    0.0400
     37 H37       -11.4586   -0.2143   52.8183 H       1  ZINC000466160459    0.0600
     38 H38       -10.4877   -1.6695   52.4899 H       1  ZINC000466160459    0.0700
     39 H39       -10.3864   -1.1129   54.8866 H       1  ZINC000466160459    0.0800
     40 H40        -8.7883   -0.8772   54.1390 H       1  ZINC000466160459    0.0800
     41 H41        -9.7931    1.5976   53.9485 H       1  ZINC000466160459    0.4000
     42 H42        -9.2441    3.3969   54.4506 H       1  ZINC000466160459    0.0700
     43 H43        -8.8974    4.4745   55.8239 H       1  ZINC000466160459    0.0700
     44 H44        -7.5185    1.8058   55.2803 H       1  ZINC000466160459    0.1000
     45 H45        -6.8236    3.4117   54.9506 H       1  ZINC000466160459    0.0700
     46 H46        -4.9693    2.6469   56.4619 H       1  ZINC000466160459    0.0400
     47 H47        -5.2865    2.3837   58.1935 H       1  ZINC000466160459    0.0800
     48 H48        -5.7998    1.1672   56.9997 H       1  ZINC000466160459    0.0600
     49 H49        -9.4935    1.0065   59.5105 H       1  ZINC000466160459    0.3900
     50 H50        -8.7493   -1.8125   59.0485 H       1  ZINC000466160459    0.0900
     51 H51        -8.4254   -2.4565   60.6786 H       1  ZINC000466160459    0.0900
     52 H52       -10.7531   -0.5932   60.0154 H       1  ZINC000466160459    0.0700
     53 H53       -10.8910   -2.3693   60.0862 H       1  ZINC000466160459    0.1000
     54 H54       -11.5248   -1.1793   62.2378 H       1  ZINC000466160459    0.0900
     55 H55       -10.2464   -2.3993   62.4163 H       1  ZINC000466160459    0.0800
     56 H56        -8.6468    1.1370   67.5817 H       1  ZINC000466160459    0.0700
     57 H57       -10.2716    0.5630   68.0279 H       1  ZINC000466160459    0.0900
     58 H58        -9.0015   -0.6072   67.5969 H       1  ZINC000466160459    0.0900
     59 H59       -11.4614    1.8687   66.0552 H       1  ZINC000466160459    0.1800
     60 H60       -11.5729    1.4607   63.4654 H       1  ZINC000466160459    0.1500
     61 H61        -9.5089    3.7459   58.1746 H       1  ZINC000466160459    0.0900
     62 H62       -10.0375    2.0644   58.4399 H       1  ZINC000466160459    0.0700
@<TRIPOS>BOND
     1     1     2    1
     2     1    34    1
     3     1    35    1
     4     1    36    1
     5     2     3    1
     6     3     4    1
     7     3    37    1
     8     3    38    1
     9     4     5    1
    10     4    39    1
    11     4    40    1
    12     5     6   am
    13     5    41    1
    14     6     7    2
    15     6     8    1
    16     8     9    1
    17     8    33    1
    18     8    10    1
    19    10    11    1
    20    10    42    1
    21    10    43    1
    22    11    12    1
    23    11    44    1
    24    11    45    1
    25    12    13    1
    26    12    14    1
    27    12    15    1
    28    14    46    1
    29    14    47    1
    30    14    48    1
    31    15    16   am
    32    15    33    1
    33    16    17    2
    34    16    18   am
    35    18    19    1
    36    18    49    1
    37    19    20    1
    38    19    31    1
    39    19    21    1
    40    21    22    1
    41    21    50    1
    42    21    51    1
    43    22    23    1
    44    22    52    1
    45    22    53    1
    46    23    24    1
    47    23    54    1
    48    23    55    1
    49    24    25    1
    50    24    31   am
    51    25    30    1
    52    25    26    2
    53    26    27    1
    54    27    28    1
    55    27    29    1
    56    28    56    1
    57    28    57    1
    58    28    58    1
    59    29    30    2
    60    29    59    1
    61    30    60    1
    62    31    32    2
    63    33    61    1
    64    33    62    1
@<TRIPOS>SUBSTRUCTURE
     1 ZINC000466160459        1 TEMP              0 ****  ****    0 ROOT


##########                                Name:    ZINC000027473870
##########                DOCK_Rotatable_Bonds:                  10
##########                         Heavy_Atoms:                  31
##########                    Molecular_Weight:             422.502
##########                DOCK_Rotatable_Bonds:                  10
##########                       Formal_Charge:        -7.45058e-08
##########                     HBond_Acceptors:                   7
##########                        HBond_Donors:                   1
##########                         Heavy_Atoms:                  31
##########                          Grid_Score:          -31.918896
##########                     Grid_vdw_energy:          -31.650383
##########                      Grid_es_energy:           -0.268513
##########           Internal_energy_repulsive:           15.281607

@<TRIPOS>MOLECULE
ZINC000027473870
 58 60 1 0 0
SMALL
USER_CHARGES


@<TRIPOS>ATOM
      1 C1         -0.0051    4.1661   50.5986 C.3     1  ZINC000027473870   -0.1400
      2 C2         -1.1062    4.3419   49.5509 C.3     1  ZINC000027473870   -0.0800
      3 C3         -2.0597    3.1773   49.6239 C.2     1  ZINC000027473870    0.1700
      4 C4         -3.0477    2.9875   50.5696 C.2     1  ZINC000027473870   -0.2900
      5 C5         -3.3665    3.8854   51.6943 C.2     1  ZINC000027473870    0.6000
      6 O6         -3.2597    5.0894   51.5603 O.2     1  ZINC000027473870   -0.5400
      7 N7         -3.7762    3.3722   52.8712 N.am    1  ZINC000027473870   -0.7200
      8 C8         -4.0947    4.2648   53.9885 C.3     1  ZINC000027473870    0.1600
      9 C9         -5.0194    3.5595   54.9469 C.ar    1  ZINC000027473870   -0.0900
     10 C10        -6.3669    3.8730   54.9605 C.ar    1  ZINC000027473870   -0.1100
     11 C11        -7.2188    3.2315   55.8357 C.ar    1  ZINC000027473870   -0.1100
     12 C12        -6.7185    2.2640   56.7085 C.ar    1  ZINC000027473870   -0.1200
     13 C13        -7.6257    1.5721   57.6489 C.2     1  ZINC000027473870    0.5600
     14 O14        -8.4183    0.7492   57.2342 O.2     1  ZINC000027473870   -0.5300
     15 N15        -7.5738    1.8539   58.9658 N.am    1  ZINC000027473870   -0.6100
     16 C16        -6.6184    2.8457   59.4656 C.3     1  ZINC000027473870    0.1100
     17 C17        -7.2213    4.2458   59.3341 C.3     1  ZINC000027473870   -0.1700
     18 C18        -8.4727    1.1683   59.8976 C.3     1  ZINC000027473870    0.0900
     19 C19        -7.8032   -0.1109   60.4041 C.3     1  ZINC000027473870   -0.1800
     20 C20        -5.3581    1.9521   56.6894 C.ar    1  ZINC000027473870   -0.0700
     21 C21        -4.5181    2.5974   55.8056 C.ar    1  ZINC000027473870   -0.1000
     22 C22        -3.6967    1.7716   50.2572 C.2     1  ZINC000027473870    0.0900
     23 N23        -3.1294    1.2719   49.1936 N.2     1  ZINC000027473870   -0.2800
     24 N24        -2.1089    2.1338   48.7764 N.pl3   1  ZINC000027473870   -0.3100
     25 C25        -1.2727    1.9379   47.6681 C.ar    1  ZINC000027473870    0.1300
     26 C26        -1.5660    2.5536   46.4588 C.ar    1  ZINC000027473870   -0.0900
     27 C27        -0.7409    2.3600   45.3683 C.ar    1  ZINC000027473870   -0.1300
     28 C28         0.3783    1.5522   45.4806 C.ar    1  ZINC000027473870    0.1100
     29 F29         1.1845    1.3641   44.4130 F       1  ZINC000027473870   -0.1300
     30 C30         0.6724    0.9371   46.6862 C.ar    1  ZINC000027473870   -0.1400
     31 C31        -0.1474    1.1326   47.7802 C.ar    1  ZINC000027473870   -0.0700
     32 H32         0.7322    4.9612   50.4879 H       1  ZINC000027473870    0.0700
     33 H33        -0.4419    4.2120   51.5961 H       1  ZINC000027473870    0.0700
     34 H34         0.4790    3.1996   50.4580 H       1  ZINC000027473870    0.0500
     35 H35        -1.6479    5.2677   49.7450 H       1  ZINC000027473870    0.1200
     36 H36        -0.6592    4.3840   48.5576 H       1  ZINC000027473870    0.0800
     37 H37        -3.8602    2.4118   52.9786 H       1  ZINC000027473870    0.4000
     38 H38        -3.1762    4.5406   54.5064 H       1  ZINC000027473870    0.0800
     39 H39        -4.5814    5.1630   53.6085 H       1  ZINC000027473870    0.0800
     40 H40        -6.7527    4.6218   54.2846 H       1  ZINC000027473870    0.1300
     41 H41        -8.2703    3.4776   55.8458 H       1  ZINC000027473870    0.1500
     42 H42        -6.3979    2.6420   60.5134 H       1  ZINC000027473870    0.0800
     43 H43        -5.6987    2.7899   58.8832 H       1  ZINC000027473870    0.0800
     44 H44        -6.5105    4.9838   59.7059 H       1  ZINC000027473870    0.0700
     45 H45        -7.4417    4.4495   58.2863 H       1  ZINC000027473870    0.0600
     46 H46        -8.1410    4.3015   59.9165 H       1  ZINC000027473870    0.0600
     47 H47        -8.6898    1.8232   60.7413 H       1  ZINC000027473870    0.0800
     48 H48        -9.4013    0.9144   59.3863 H       1  ZINC000027473870    0.0900
     49 H49        -8.5484   -0.7456   60.8835 H       1  ZINC000027473870    0.0700
     50 H50        -7.3573   -0.6445   59.5648 H       1  ZINC000027473870    0.0700
     51 H51        -7.0269    0.1461   61.1249 H       1  ZINC000027473870    0.0600
     52 H52        -4.9648    1.2047   57.3625 H       1  ZINC000027473870    0.1300
     53 H53        -3.4653    2.3569   55.7895 H       1  ZINC000027473870    0.1300
     54 H54        -4.5182    1.3324   50.8036 H       1  ZINC000027473870    0.1900
     55 H55        -2.4389    3.1834   46.3707 H       1  ZINC000027473870    0.1500
     56 H56        -0.9689    2.8385   44.4273 H       1  ZINC000027473870    0.1500
     57 H57         1.5456    0.3072   46.7716 H       1  ZINC000027473870    0.1500
     58 H58         0.0826    0.6531   48.7202 H       1  ZINC000027473870    0.1400
@<TRIPOS>BOND
     1     1     2    1
     2     1    32    1
     3     1    33    1
     4     1    34    1
     5     2     3    1
     6     2    35    1
     7     2    36    1
     8     3    24    1
     9     3     4    2
    10     4     5    1
    11     4    22    1
    12     5     6    2
    13     5     7   am
    14     7     8    1
    15     7    37    1
    16     8     9    1
    17     8    38    1
    18     8    39    1
    19     9    21   ar
    20     9    10   ar
    21    10    11   ar
    22    10    40    1
    23    11    12   ar
    24    11    41    1
    25    12    13    1
    26    12    20   ar
    27    13    14    2
    28    13    15   am
    29    15    16    1
    30    15    18    1
    31    16    17    1
    32    16    42    1
    33    16    43    1
    34    17    44    1
    35    17    45    1
    36    17    46    1
    37    18    19    1
    38    18    47    1
    39    18    48    1
    40    19    49    1
    41    19    50    1
    42    19    51    1
    43    20    21   ar
    44    20    52    1
    45    21    53    1
    46    22    23    2
    47    22    54    1
    48    23    24    1
    49    24    25    1
    50    25    31   ar
    51    25    26   ar
    52    26    27   ar
    53    26    55    1
    54    27    28   ar
    55    27    56    1
    56    28    29    1
    57    28    30   ar
    58    30    31   ar
    59    30    57    1
    60    31    58    1
@<TRIPOS>SUBSTRUCTURE
     1 ZINC000027473870        1 TEMP              0 ****  ****    0 ROOT


##########                                Name:    ZINC001041713551
##########                DOCK_Rotatable_Bonds:                  10
##########                         Heavy_Atoms:                  22
##########                    Molecular_Weight:             330.448
##########                DOCK_Rotatable_Bonds:                  10
##########                       Formal_Charge:          -0.0100006
##########                     HBond_Acceptors:                   7
##########                        HBond_Donors:                   2
##########                         Heavy_Atoms:                  22
##########                          Grid_Score:          -31.918882
##########                     Grid_vdw_energy:          -29.901255
##########                      Grid_es_energy:           -2.017628
##########           Internal_energy_repulsive:            6.000044

@<TRIPOS>MOLECULE
ZINC001041713551
 48 49 1 0 0
SMALL
USER_CHARGES


@<TRIPOS>ATOM
      1 C1         -6.5822    3.5549   57.4783 C.3     1  ZINC001041713551   -0.1500
      2 C2         -5.6134    2.4885   56.9633 C.3     1  ZINC001041713551   -0.1100
      3 C3         -4.3186    3.1577   56.4982 C.3     1  ZINC001041713551   -0.1000
      4 S4         -3.1343    1.8863   55.9769 S.3     1  ZINC001041713551   -0.1800
      5 C5         -1.6327    2.8440   55.6325 C.3     1  ZINC001041713551   -0.1300
      6 C6         -1.8725    3.7458   54.4490 C.2     1  ZINC001041713551    0.5300
      7 O7         -1.4542    4.8841   54.4595 O.2     1  ZINC001041713551   -0.5100
      8 N8         -2.5518    3.2872   53.3791 N.am    1  ZINC001041713551   -0.7300
      9 C9         -2.7834    4.1634   52.2280 C.3     1  ZINC001041713551    0.1000
     10 C10        -1.8553    3.7557   51.0820 C.3     1  ZINC001041713551    0.0900
     11 O11        -0.5847    3.2841   51.5350 O.3     1  ZINC001041713551   -0.5200
     12 C12        -2.5229    2.8409   50.0393 C.3     1  ZINC001041713551    0.0900
     13 N13        -1.8316    3.6604   49.0252 N.am    1  ZINC001041713551   -0.6400
     14 C14        -1.4260    3.4502   47.7572 C.2     1  ZINC001041713551    0.5500
     15 O15        -0.8629    4.3337   47.1462 O.2     1  ZINC001041713551   -0.5100
     16 C16        -1.6721    2.1173   47.0985 C.3     1  ZINC001041713551    0.0800
     17 H17        -2.6691    1.7619   47.3587 H       1  ZINC001041713551    0.0800
     18 C18        -0.6279    1.1080   47.5828 C.3     1  ZINC001041713551   -0.1500
     19 C19        -0.8475   -0.2268   46.8641 C.3     1  ZINC001041713551   -0.1200
     20 C20        -0.7764    0.0028   45.3513 C.3     1  ZINC001041713551   -0.1600
     21 C21        -1.8148    1.0547   44.9533 C.3     1  ZINC001041713551    0.0600
     22 O22        -1.5724    2.2608   45.6803 O.3     1  ZINC001041713551   -0.3600
     23 C23        -1.7627    4.8027   49.9571 C.3     1  ZINC001041713551    0.1200
     24 H24        -6.8050    4.2604   56.6778 H       1  ZINC001041713551    0.0600
     25 H25        -7.5046    3.0781   57.8097 H       1  ZINC001041713551    0.0600
     26 H26        -6.1271    4.0859   58.3143 H       1  ZINC001041713551    0.0600
     27 H27        -5.3905    1.7830   57.7638 H       1  ZINC001041713551    0.0700
     28 H28        -6.0686    1.9574   56.1273 H       1  ZINC001041713551    0.0700
     29 H29        -4.5329    3.8203   55.6597 H       1  ZINC001041713551    0.0800
     30 H30        -3.8933    3.7358   57.3186 H       1  ZINC001041713551    0.0800
     31 H31        -1.3791    3.4478   56.5038 H       1  ZINC001041713551    0.1100
     32 H32        -0.8107    2.1636   55.4102 H       1  ZINC001041713551    0.1100
     33 H33        -2.8875    2.3772   53.3713 H       1  ZINC001041713551    0.4000
     34 H34        -3.8206    4.0728   51.9054 H       1  ZINC001041713551    0.0900
     35 H35        -2.5797    5.1961   52.5107 H       1  ZINC001041713551    0.0900
     36 H36        -0.6344    2.4994   52.0980 H       1  ZINC001041713551    0.3800
     37 H37        -2.1793    1.8071   50.0775 H       1  ZINC001041713551    0.0900
     38 H38        -3.6090    2.9286   50.0090 H       1  ZINC001041713551    0.1000
     39 H39         0.3713    1.4819   47.3592 H       1  ZINC001041713551    0.0800
     40 H40        -0.7317    0.9640   48.6583 H       1  ZINC001041713551    0.0800
     41 H41        -0.0730   -0.9334   47.1625 H       1  ZINC001041713551    0.0700
     42 H42        -1.8274   -0.6254   47.1267 H       1  ZINC001041713551    0.0700
     43 H43         0.2198    0.3544   45.0826 H       1  ZINC001041713551    0.0700
     44 H44        -0.9864   -0.9317   44.8308 H       1  ZINC001041713551    0.0800
     45 H45        -1.7397    1.2534   43.8841 H       1  ZINC001041713551    0.1000
     46 H46        -2.8138    0.6854   45.1851 H       1  ZINC001041713551    0.0500
     47 H47        -2.6255    5.4666   49.9028 H       1  ZINC001041713551    0.1100
     48 H48        -0.8121    5.3353   49.9299 H       1  ZINC001041713551    0.1000
@<TRIPOS>BOND
     1     1     2    1
     2     1    24    1
     3     1    25    1
     4     1    26    1
     5     2     3    1
     6     2    27    1
     7     2    28    1
     8     3     4    1
     9     3    29    1
    10     3    30    1
    11     4     5    1
    12     5     6    1
    13     5    31    1
    14     5    32    1
    15     6     7    2
    16     6     8   am
    17     8     9    1
    18     8    33    1
    19     9    10    1
    20     9    34    1
    21     9    35    1
    22    10    23    1
    23    10    11    1
    24    10    12    1
    25    11    36    1
    26    12    13    1
    27    12    37    1
    28    12    38    1
    29    13    14   am
    30    13    23    1
    31    14    15    2
    32    14    16    1
    33    16    17    1
    34    16    22    1
    35    16    18    1
    36    18    19    1
    37    18    39    1
    38    18    40    1
    39    19    20    1
    40    19    41    1
    41    19    42    1
    42    20    21    1
    43    20    43    1
    44    20    44    1
    45    21    22    1
    46    21    45    1
    47    21    46    1
    48    23    47    1
    49    23    48    1
@<TRIPOS>SUBSTRUCTURE
     1 ZINC001041713551        1 TEMP              0 ****  ****    0 ROOT


##########                                Name:    ZINC000949401225
##########                DOCK_Rotatable_Bonds:                   7
##########                         Heavy_Atoms:                  24
##########                    Molecular_Weight:             332.403
##########                DOCK_Rotatable_Bonds:                   7
##########                       Formal_Charge:                0.03
##########                     HBond_Acceptors:                   7
##########                        HBond_Donors:                   1
##########                         Heavy_Atoms:                  24
##########                          Grid_Score:          -31.906591
##########                     Grid_vdw_energy:          -32.392887
##########                      Grid_es_energy:            0.486296
##########           Internal_energy_repulsive:            9.492455

@<TRIPOS>MOLECULE
ZINC000949401225
 48 50 1 0 0
SMALL
USER_CHARGES


@<TRIPOS>ATOM
      1 C1         -6.0431    2.2430   57.3950 C.3     1  ZINC000949401225    0.0700
      2 N2         -5.4538    2.6323   56.1116 N.pl3   1  ZINC000949401225   -0.4500
      3 C3         -6.1491    2.7784   54.9466 C.2     1  ZINC000949401225   -0.0100
      4 C4         -5.2951    3.1421   53.9734 C.2     1  ZINC000949401225   -0.1700
      5 C5         -3.9699    3.2245   54.5970 C.2     1  ZINC000949401225   -0.2400
      6 C6         -2.7031    3.5865   53.9391 C.2     1  ZINC000949401225    0.5900
      7 O7         -1.6685    3.6013   54.5783 O.2     1  ZINC000949401225   -0.5500
      8 N8         -2.6903    3.9015   52.6288 N.am    1  ZINC000949401225   -0.7300
      9 C9         -1.4304    4.2634   51.9747 C.3     1  ZINC000949401225    0.1200
     10 C10        -1.7260    5.0728   50.7105 C.3     1  ZINC000949401225    0.1200
     11 H11        -2.5145    5.8110   50.8576 H       1  ZINC000949401225    0.1000
     12 C12        -0.4680    5.6468   50.0439 C.3     1  ZINC000949401225   -0.1500
     13 C13        -1.2005    5.2715   48.7483 C.3     1  ZINC000949401225    0.1000
     14 N14        -1.9192    4.2402   49.5137 N.am    1  ZINC000949401225   -0.6400
     15 C15        -2.4975    3.0543   49.2388 C.2     1  ZINC000949401225    0.5500
     16 O16        -3.0293    2.4191   50.1246 O.2     1  ZINC000949401225   -0.5200
     17 C17        -2.4834    2.5176   47.8307 C.3     1  ZINC000949401225   -0.1400
     18 C18        -1.2992    1.5638   47.6603 C.3     1  ZINC000949401225    0.1500
     19 H19        -0.3626    2.0888   47.8484 H       1  ZINC000949401225    0.0900
     20 C20        -1.4396    0.3607   48.6192 C.3     1  ZINC000949401225   -0.1200
     21 C21        -0.8561   -0.7907   47.7678 C.3     1  ZINC000949401225   -0.1600
     22 C22        -1.0477   -0.3301   46.3396 C.2     1  ZINC000949401225    0.5200
     23 O23        -0.9838   -1.0475   45.3639 O.2     1  ZINC000949401225   -0.5300
     24 N24        -1.2982    0.9917   46.3088 N.am    1  ZINC000949401225   -0.6200
     25 C25        -1.5412    1.7586   45.0844 C.3     1  ZINC000949401225    0.0900
     26 C26        -4.1494    2.9027   55.9141 C.2     1  ZINC000949401225    0.0800
     27 H27        -6.3609    3.1352   57.9344 H       1  ZINC000949401225    0.0800
     28 H28        -6.9047    1.5990   57.2187 H       1  ZINC000949401225    0.0900
     29 H29        -5.3024    1.7051   57.9867 H       1  ZINC000949401225    0.0900
     30 H30        -7.2115    2.6267   54.8258 H       1  ZINC000949401225    0.1700
     31 H31        -5.5368    3.3349   52.9386 H       1  ZINC000949401225    0.1500
     32 H32        -3.5152    3.8886   52.1188 H       1  ZINC000949401225    0.4000
     33 H33        -0.8260    4.8620   52.6563 H       1  ZINC000949401225    0.0700
     34 H34        -0.8865    3.3574   51.7072 H       1  ZINC000949401225    0.0900
     35 H35        -0.3356    6.7190   50.1880 H       1  ZINC000949401225    0.1000
     36 H36         0.4381    5.0697   50.2283 H       1  ZINC000949401225    0.1000
     37 H37        -1.8494    6.0624   48.3718 H       1  ZINC000949401225    0.0900
     38 H38        -0.5430    4.8638   47.9804 H       1  ZINC000949401225    0.0800
     39 H39        -3.4125    1.9816   47.6367 H       1  ZINC000949401225    0.1000
     40 H40        -2.3876    3.3449   47.1275 H       1  ZINC000949401225    0.1000
     41 H41        -0.8520    0.5129   49.5245 H       1  ZINC000949401225    0.1000
     42 H42        -2.4859    0.1752   48.8616 H       1  ZINC000949401225    0.0800
     43 H43         0.2032   -0.9273   47.9857 H       1  ZINC000949401225    0.1100
     44 H44        -1.4058   -1.7146   47.9477 H       1  ZINC000949401225    0.1000
     45 H45        -1.5704    1.0810   44.2311 H       1  ZINC000949401225    0.0800
     46 H46        -2.4943    2.2812   45.1661 H       1  ZINC000949401225    0.0600
     47 H47        -0.7398    2.4841   44.9451 H       1  ZINC000949401225    0.0600
     48 H48        -3.3756    2.8653   56.6665 H       1  ZINC000949401225    0.1800
@<TRIPOS>BOND
     1     1     2    1
     2     1    27    1
     3     1    28    1
     4     1    29    1
     5     2    26    1
     6     2     3    1
     7     3     4    2
     8     3    30    1
     9     4     5    1
    10     4    31    1
    11     5     6    1
    12     5    26    2
    13     6     7    2
    14     6     8   am
    15     8     9    1
    16     8    32    1
    17     9    10    1
    18     9    33    1
    19     9    34    1
    20    10    11    1
    21    10    14    1
    22    10    12    1
    23    12    13    1
    24    12    35    1
    25    12    36    1
    26    13    14    1
    27    13    37    1
    28    13    38    1
    29    14    15   am
    30    15    16    2
    31    15    17    1
    32    17    18    1
    33    17    39    1
    34    17    40    1
    35    18    19    1
    36    18    24    1
    37    18    20    1
    38    20    21    1
    39    20    41    1
    40    20    42    1
    41    21    22    1
    42    21    43    1
    43    21    44    1
    44    22    23    2
    45    22    24   am
    46    24    25    1
    47    25    45    1
    48    25    46    1
    49    25    47    1
    50    26    48    1
@<TRIPOS>SUBSTRUCTURE
     1 ZINC000949401225        1 TEMP              0 ****  ****    0 ROOT


##########                                Name:    ZINC000745364361
##########                DOCK_Rotatable_Bonds:                   8
##########                         Heavy_Atoms:                  29
##########                    Molecular_Weight:             398.434
##########                DOCK_Rotatable_Bonds:                   8
##########                       Formal_Charge:          0.00999923
##########                     HBond_Acceptors:                   7
##########                        HBond_Donors:                   1
##########                         Heavy_Atoms:                  29
##########                          Grid_Score:          -31.900909
##########                     Grid_vdw_energy:          -29.776793
##########                      Grid_es_energy:           -2.124117
##########           Internal_energy_repulsive:           16.255531

@<TRIPOS>MOLECULE
ZINC000745364361
 52 54 1 0 0
SMALL
USER_CHARGES


@<TRIPOS>ATOM
      1 C1        -11.3449   -1.8353   58.1115 C.3     1  ZINC000745364361   -0.1700
      2 C2        -11.7283   -2.8325   59.2067 C.3     1  ZINC000745364361    0.0700
      3 H3        -11.4485   -3.8390   58.8958 H       1  ZINC000745364361    0.1100
      4 O4        -13.1617   -2.7766   59.4321 O.3     1  ZINC000745364361   -0.3200
      5 C5        -13.9374   -3.4909   58.6016 C.2     1  ZINC000745364361    0.4700
      6 O6        -13.4418   -4.3187   57.8743 O.2     1  ZINC000745364361   -0.4900
      7 C7        -15.4265   -3.2604   58.5765 C.3     1  ZINC000745364361   -0.0400
      8 H8        -15.9332   -4.1873   58.3077 H       1  ZINC000745364361    0.1200
      9 C9        -15.8955   -2.8056   59.9601 C.3     1  ZINC000745364361   -0.1400
     10 C10       -15.7531   -2.1964   57.5605 C.ar    1  ZINC000745364361   -0.0500
     11 C11       -16.0244   -2.5503   56.2523 C.ar    1  ZINC000745364361   -0.1000
     12 C12       -16.3241   -1.5752   55.3191 C.ar    1  ZINC000745364361   -0.0900
     13 C13       -16.3529   -0.2454   55.6934 C.ar    1  ZINC000745364361   -0.1500
     14 C14       -16.0817    0.1104   57.0040 C.ar    1  ZINC000745364361    0.1000
     15 F15       -16.1094    1.4102   57.3711 F       1  ZINC000745364361   -0.1400
     16 C16       -15.7868   -0.8673   57.9386 C.ar    1  ZINC000745364361   -0.1400
     17 C17       -11.0053   -2.4812   60.4814 C.2     1  ZINC000745364361    0.5200
     18 O18       -10.7900   -3.3380   61.3125 O.2     1  ZINC000745364361   -0.5000
     19 N19       -10.5980   -1.2148   60.6980 N.am    1  ZINC000745364361   -0.6700
     20 C20        -9.9260   -0.8882   61.8828 C.ar    1  ZINC000745364361    0.1200
     21 C21        -8.5467   -1.0297   61.9604 C.ar    1  ZINC000745364361   -0.1100
     22 C22        -7.8844   -0.7079   63.1280 C.ar    1  ZINC000745364361   -0.1400
     23 C23        -8.5974   -0.2423   64.2250 C.ar    1  ZINC000745364361    0.1500
     24 N24        -7.9254    0.0838   65.4100 N.am    1  ZINC000745364361   -0.5600
     25 C25        -6.9991    1.2132   65.5527 C.3     1  ZINC000745364361    0.0900
     26 C26        -6.8574    1.4404   67.0740 C.3     1  ZINC000745364361   -0.1300
     27 C27        -7.1880    0.0377   67.6344 C.3     1  ZINC000745364361   -0.1500
     28 C28        -8.0506   -0.5938   66.5640 C.2     1  ZINC000745364361    0.5200
     29 O29        -8.7480   -1.5735   66.7222 O.2     1  ZINC000745364361   -0.5100
     30 C30        -9.9765   -0.0995   64.1470 C.ar    1  ZINC000745364361   -0.1400
     31 C31       -10.6384   -0.4177   62.9781 C.ar    1  ZINC000745364361   -0.0900
     32 H32       -11.8679   -2.0894   57.1895 H       1  ZINC000745364361    0.0800
     33 H33       -11.6249   -0.8288   58.4224 H       1  ZINC000745364361    0.0800
     34 H34       -10.2690   -1.8774   57.9423 H       1  ZINC000745364361    0.0800
     35 H35       -15.3888   -1.8787   60.2289 H       1  ZINC000745364361    0.0700
     36 H36       -16.9725   -2.6389   59.9420 H       1  ZINC000745364361    0.0800
     37 H37       -15.6593   -3.5752   60.6949 H       1  ZINC000745364361    0.0800
     38 H38       -16.0018   -3.5894   55.9587 H       1  ZINC000745364361    0.1300
     39 H39       -16.5356   -1.8529   54.2970 H       1  ZINC000745364361    0.1400
     40 H40       -16.5864    0.5162   54.9642 H       1  ZINC000745364361    0.1400
     41 H41       -15.5755   -0.5911   58.9611 H       1  ZINC000745364361    0.1400
     42 H42       -10.7703   -0.5296   60.0335 H       1  ZINC000745364361    0.4100
     43 H43        -7.9921   -1.3918   61.1073 H       1  ZINC000745364361    0.1300
     44 H44        -6.8118   -0.8185   63.1886 H       1  ZINC000745364361    0.1600
     45 H45        -6.0314    0.9648   65.1167 H       1  ZINC000745364361    0.0800
     46 H46        -7.4116    2.1021   65.0753 H       1  ZINC000745364361    0.0900
     47 H47        -5.8396    1.7334   67.3316 H       1  ZINC000745364361    0.1000
     48 H48        -7.5758    2.1805   67.4265 H       1  ZINC000745364361    0.0900
     49 H49        -6.2748   -0.5386   67.7832 H       1  ZINC000745364361    0.1100
     50 H50        -7.7438    0.1213   68.5683 H       1  ZINC000745364361    0.1100
     51 H51       -10.5310    0.2629   65.0000 H       1  ZINC000745364361    0.1300
     52 H52       -11.7109   -0.3067   62.9175 H       1  ZINC000745364361    0.1400
@<TRIPOS>BOND
     1     1     2    1
     2     1    32    1
     3     1    33    1
     4     1    34    1
     5     2     3    1
     6     2     4    1
     7     2    17    1
     8     4     5    1
     9     5     6    2
    10     5     7    1
    11     7     8    1
    12     7     9    1
    13     7    10    1
    14     9    35    1
    15     9    36    1
    16     9    37    1
    17    10    16   ar
    18    10    11   ar
    19    11    12   ar
    20    11    38    1
    21    12    13   ar
    22    12    39    1
    23    13    14   ar
    24    13    40    1
    25    14    15    1
    26    14    16   ar
    27    16    41    1
    28    17    18    2
    29    17    19   am
    30    19    20    1
    31    19    42    1
    32    20    31   ar
    33    20    21   ar
    34    21    22   ar
    35    21    43    1
    36    22    23   ar
    37    22    44    1
    38    23    24    1
    39    23    30   ar
    40    24    28   am
    41    24    25    1
    42    25    26    1
    43    25    45    1
    44    25    46    1
    45    26    27    1
    46    26    47    1
    47    26    48    1
    48    27    28    1
    49    27    49    1
    50    27    50    1
    51    28    29    2
    52    30    31   ar
    53    30    51    1
    54    31    52    1
@<TRIPOS>SUBSTRUCTURE
     1 ZINC000745364361        1 TEMP              0 ****  ****    0 ROOT


##########                                Name:    ZINC000650955167
##########                DOCK_Rotatable_Bonds:                   9
##########                         Heavy_Atoms:                  26
##########                    Molecular_Weight:             361.484
##########                DOCK_Rotatable_Bonds:                   9
##########                       Formal_Charge:        -7.07805e-07
##########                     HBond_Acceptors:                   6
##########                        HBond_Donors:                   2
##########                         Heavy_Atoms:                  26
##########                          Grid_Score:          -31.862640
##########                     Grid_vdw_energy:          -29.518681
##########                      Grid_es_energy:           -2.343961
##########           Internal_energy_repulsive:           29.962116

@<TRIPOS>MOLECULE
ZINC000650955167
 57 59 1 0 0
SMALL
USER_CHARGES


@<TRIPOS>ATOM
      1 C1          1.1488   -0.2752   48.4572 C.3     1  ZINC000650955167    0.0200
      2 O2         -0.2559   -0.4565   48.2671 O.3     1  ZINC000650955167   -0.3200
      3 C3         -0.8839    0.4170   47.4368 C.ar    1  ZINC000650955167    0.1300
      4 C4         -0.7830    0.2635   46.0620 C.ar    1  ZINC000650955167   -0.2000
      5 C5         -1.4229    1.1527   45.2199 C.ar    1  ZINC000650955167   -0.0800
      6 C6         -2.1628    2.1948   45.7466 C.ar    1  ZINC000650955167   -0.1500
      7 C7         -2.2646    2.3504   47.1169 C.ar    1  ZINC000650955167   -0.0800
      8 C8         -1.6318    1.4605   47.9630 C.ar    1  ZINC000650955167   -0.1100
      9 C9         -1.7435    1.6302   49.4562 C.3     1  ZINC000650955167   -0.0800
     10 C10        -1.1062    2.9589   49.8676 C.3     1  ZINC000650955167    0.1800
     11 H11        -0.4286    3.2952   49.0829 H       1  ZINC000650955167    0.0900
     12 N12        -0.3579    2.7763   51.1139 N.am    1  ZINC000650955167   -0.7300
     13 C13         0.8864    3.2803   51.2327 C.2     1  ZINC000650955167    0.7400
     14 O14         1.3874    3.8879   50.3063 O.2     1  ZINC000650955167   -0.5800
     15 N15         1.5754    3.1109   52.3786 N.am    1  ZINC000650955167   -0.6700
     16 C16         1.3332    2.4562   53.6731 C.3     1  ZINC000650955167    0.1100
     17 C17         2.3121    3.4577   54.3014 C.3     1  ZINC000650955167    0.0300
     18 N18         3.2075    2.8734   55.3090 N.3     1  ZINC000650955167   -0.5100
     19 C19         4.0509    1.8131   54.7171 C.3     1  ZINC000650955167    0.0400
     20 C20         4.2390    0.7770   55.8532 C.3     1  ZINC000650955167   -0.1600
     21 C21         2.8488    0.8101   56.5409 C.3     1  ZINC000650955167    0.0800
     22 H22         2.1413    0.1728   56.0105 H       1  ZINC000650955167    0.0600
     23 O23         2.9531    0.4159   57.9105 O.3     1  ZINC000650955167   -0.5600
     24 C24         2.4393    2.2935   56.4259 C.3     1  ZINC000650955167    0.0500
     25 C25         2.9030    3.4938   52.8824 C.3     1  ZINC000650955167    0.1400
     26 C26        -2.2014    4.0061   50.0792 C.3     1  ZINC000650955167   -0.1100
     27 C27        -2.3381    4.3063   51.5733 C.3     1  ZINC000650955167   -0.1400
     28 C28        -1.8310    5.2893   49.3329 C.3     1  ZINC000650955167   -0.1500
     29 H29         1.5243   -1.0369   49.1405 H       1  ZINC000650955167    0.1000
     30 H30         1.6596   -0.3637   47.4983 H       1  ZINC000650955167    0.0600
     31 H31         1.3340    0.7133   48.8776 H       1  ZINC000650955167    0.0600
     32 H32        -0.2045   -0.5501   45.6499 H       1  ZINC000650955167    0.1300
     33 H33        -1.3447    1.0336   44.1494 H       1  ZINC000650955167    0.1200
     34 H34        -2.6620    2.8890   45.0868 H       1  ZINC000650955167    0.1200
     35 H35        -2.8429    3.1656   47.5260 H       1  ZINC000650955167    0.1300
     36 H36        -2.7947    1.6268   49.7446 H       1  ZINC000650955167    0.0900
     37 H37        -1.2273    0.8098   49.9548 H       1  ZINC000650955167    0.0800
     38 H38        -0.7580    2.2927   51.8534 H       1  ZINC000650955167    0.4000
     39 H39         0.3095    2.5671   54.0307 H       1  ZINC000650955167    0.0700
     40 H40         1.6838    1.4249   53.7102 H       1  ZINC000650955167    0.0900
     41 H41         1.8509    4.3910   54.6244 H       1  ZINC000650955167    0.0900
     42 H42         3.5447    1.3561   53.8667 H       1  ZINC000650955167    0.0500
     43 H43         5.0146    2.2209   54.4119 H       1  ZINC000650955167    0.0900
     44 H44         4.4508   -0.2125   55.4480 H       1  ZINC000650955167    0.0800
     45 H45         5.0230    1.0912   56.5421 H       1  ZINC000650955167    0.0900
     46 H46         2.1112    0.4205   58.3862 H       1  ZINC000650955167    0.3800
     47 H47         2.6782    2.8171   57.3515 H       1  ZINC000650955167    0.0900
     48 H48         1.3715    2.3685   56.2199 H       1  ZINC000650955167    0.0700
     49 H49         3.6701    2.7384   52.7122 H       1  ZINC000650955167    0.0900
     50 H50         3.2142    4.4897   52.5670 H       1  ZINC000650955167    0.0800
     51 H51        -3.1481    3.6240   49.6972 H       1  ZINC000650955167    0.0700
     52 H52        -1.3915    4.6885   51.9552 H       1  ZINC000650955167    0.0600
     53 H53        -3.1184    5.0524   51.7239 H       1  ZINC000650955167    0.0400
     54 H54        -2.6020    3.3921   52.1049 H       1  ZINC000650955167    0.0500
     55 H55        -1.7336    5.0755   48.2686 H       1  ZINC000650955167    0.0600
     56 H56        -2.6112    6.0354   49.4837 H       1  ZINC000650955167    0.0600
     57 H57        -0.8842    5.6714   49.7149 H       1  ZINC000650955167    0.0600
@<TRIPOS>BOND
     1     1     2    1
     2     1    29    1
     3     1    30    1
     4     1    31    1
     5     2     3    1
     6     3     8   ar
     7     3     4   ar
     8     4     5   ar
     9     4    32    1
    10     5     6   ar
    11     5    33    1
    12     6     7   ar
    13     6    34    1
    14     7     8   ar
    15     7    35    1
    16     8     9    1
    17     9    10    1
    18     9    36    1
    19     9    37    1
    20    10    11    1
    21    10    12    1
    22    10    26    1
    23    12    13   am
    24    12    38    1
    25    13    14    2
    26    13    15   am
    27    15    25    1
    28    15    16    1
    29    16    17    1
    30    16    39    1
    31    16    40    1
    32    17    18    1
    33    17    25    1
    34    17    41    1
    35    18    24    1
    36    18    19    1
    37    19    20    1
    38    19    42    1
    39    19    43    1
    40    20    21    1
    41    20    44    1
    42    20    45    1
    43    21    22    1
    44    21    23    1
    45    21    24    1
    46    23    46    1
    47    24    47    1
    48    24    48    1
    49    25    49    1
    50    25    50    1
    51    26    27    1
    52    26    28    1
    53    26    51    1
    54    27    52    1
    55    27    53    1
    56    27    54    1
    57    28    55    1
    58    28    56    1
    59    28    57    1
@<TRIPOS>SUBSTRUCTURE
     1 ZINC000650955167        1 TEMP              0 ****  ****    0 ROOT


##########                                Name:    ZINC000451019064
##########                DOCK_Rotatable_Bonds:                   8
##########                         Heavy_Atoms:                  23
##########                    Molecular_Weight:             346.534
##########                DOCK_Rotatable_Bonds:                   8
##########                       Formal_Charge:          -0.0200008
##########                     HBond_Acceptors:                   6
##########                        HBond_Donors:                   1
##########                         Heavy_Atoms:                  23
##########                          Grid_Score:          -31.857126
##########                     Grid_vdw_energy:          -31.380459
##########                      Grid_es_energy:           -0.476667
##########           Internal_energy_repulsive:            6.028205

@<TRIPOS>MOLECULE
ZINC000451019064
 57 58 1 0 0
SMALL
USER_CHARGES


@<TRIPOS>ATOM
      1 C1         -0.6798    0.4681   44.1371 C.3     1  ZINC000451019064   -0.1500
      2 C2         -1.2465    0.4282   45.5578 C.3     1  ZINC000451019064    0.0900
      3 H3         -2.3167    0.2254   45.5172 H       1  ZINC000451019064    0.0700
      4 C4         -1.0074    1.7770   46.2416 C.3     1  ZINC000451019064    0.0200
      5 N5         -1.4843    1.7078   47.6305 N.3     1  ZINC000451019064   -0.5400
      6 C6         -1.3248    3.0020   48.3069 C.3     1  ZINC000451019064    0.0600
      7 C7         -2.2884    3.0796   49.4929 C.3     1  ZINC000451019064   -0.1300
      8 C8         -2.4508    4.5388   49.9234 C.3     1  ZINC000451019064    0.1100
      9 N9         -3.3631    4.6118   51.0673 N.am    1  ZINC000451019064   -1.1200
     10 S10        -3.2002    5.8274   52.1801 S.o2    1  ZINC000451019064    2.6100
     11 O11        -1.9253    5.5988   52.7647 O.2     1  ZINC000451019064   -0.9600
     12 O12        -3.4669    7.0138   51.4448 O.2     1  ZINC000451019064   -0.9500
     13 C13        -4.5186    5.5163   53.3865 C.3     1  ZINC000451019064   -0.6300
     14 C14        -4.2658    4.1787   54.0849 C.3     1  ZINC000451019064   -0.1100
     15 C15        -5.2576    4.0095   55.2375 C.3     1  ZINC000451019064   -0.0800
     16 C16        -6.6712    3.8494   54.6746 C.3     1  ZINC000451019064   -0.1200
     17 C17        -7.6631    3.6803   55.8272 C.3     1  ZINC000451019064   -0.1200
     18 C18        -7.2938    2.4374   56.6395 C.3     1  ZINC000451019064   -0.1200
     19 C19        -5.8802    2.5975   57.2025 C.3     1  ZINC000451019064   -0.1200
     20 C20        -4.8883    2.7667   56.0498 C.3     1  ZINC000451019064   -0.1200
     21 C21        -0.7920    0.6398   48.3664 C.3     1  ZINC000451019064    0.0200
     22 C22        -1.0332   -0.6975   47.6613 C.3     1  ZINC000451019064    0.0900
     23 H23        -2.0972   -0.9335   47.6825 H       1  ZINC000451019064    0.0700
     24 C24        -0.2509   -1.8008   48.3767 C.3     1  ZINC000451019064   -0.1500
     25 O25        -0.5932   -0.6022   46.3038 O.3     1  ZINC000451019064   -0.3800
     26 H26        -0.8490   -0.4929   43.6514 H       1  ZINC000451019064    0.0700
     27 H27        -1.1771    1.2547   43.5696 H       1  ZINC000451019064    0.0700
     28 H28         0.3903    0.6710   44.1784 H       1  ZINC000451019064    0.0600
     29 H29         0.0584    2.0052   46.2337 H       1  ZINC000451019064    0.0400
     30 H30        -1.5512    2.5568   45.7085 H       1  ZINC000451019064    0.0900
     31 H31        -0.3000    3.1012   48.6645 H       1  ZINC000451019064    0.0400
     32 H32        -1.5451    3.8076   47.6066 H       1  ZINC000451019064    0.0800
     33 H33        -3.2581    2.6771   49.2002 H       1  ZINC000451019064    0.0800
     34 H34        -1.8894    2.4980   50.3240 H       1  ZINC000451019064    0.0800
     35 H35        -1.4795    4.9442   50.2068 H       1  ZINC000451019064    0.0800
     36 H36        -2.8589    5.1185   49.0955 H       1  ZINC000451019064    0.0700
     37 H37        -4.0628    3.9483   51.1729 H       1  ZINC000451019064    0.4200
     38 H38        -4.5299    6.3163   54.1269 H       1  ZINC000451019064    0.1300
     39 H39        -5.4799    5.4825   52.8737 H       1  ZINC000451019064    0.1400
     40 H40        -4.3965    3.3656   53.3708 H       1  ZINC000451019064    0.0800
     41 H41        -3.2483    4.1593   54.4753 H       1  ZINC000451019064    0.0800
     42 H42        -5.2202    4.8885   55.8809 H       1  ZINC000451019064    0.0800
     43 H43        -6.9343    4.7348   54.0958 H       1  ZINC000451019064    0.0600
     44 H44        -6.7086    2.9705   54.0310 H       1  ZINC000451019064    0.0700
     45 H45        -7.6256    4.5592   56.4706 H       1  ZINC000451019064    0.0600
     46 H46        -8.6702    3.5662   55.4262 H       1  ZINC000451019064    0.0600
     47 H47        -8.0004    2.3169   57.4607 H       1  ZINC000451019064    0.0600
     48 H48        -7.3312    1.5585   55.9961 H       1  ZINC000451019064    0.0600
     49 H49        -5.8427    3.4765   57.8459 H       1  ZINC000451019064    0.0600
     50 H50        -5.6171    1.7121   57.7812 H       1  ZINC000451019064    0.0600
     51 H51        -4.9257    1.8877   55.4063 H       1  ZINC000451019064    0.0700
     52 H52        -3.8813    2.8808   56.4509 H       1  ZINC000451019064    0.0600
     53 H53         0.2772    0.8498   48.3924 H       1  ZINC000451019064    0.0400
     54 H54        -1.1786    0.5895   49.3843 H       1  ZINC000451019064    0.0900
     55 H55        -0.5854   -1.8706   49.4118 H       1  ZINC000451019064    0.0700
     56 H56        -0.4231   -2.7526   47.8742 H       1  ZINC000451019064    0.0700
     57 H57         0.8130   -1.5651   48.3538 H       1  ZINC000451019064    0.0600
@<TRIPOS>BOND
     1     1     2    1
     2     1    26    1
     3     1    27    1
     4     1    28    1
     5     2     3    1
     6     2    25    1
     7     2     4    1
     8     4     5    1
     9     4    29    1
    10     4    30    1
    11     5     6    1
    12     5    21    1
    13     6     7    1
    14     6    31    1
    15     6    32    1
    16     7     8    1
    17     7    33    1
    18     7    34    1
    19     8     9    1
    20     8    35    1
    21     8    36    1
    22     9    10   am
    23     9    37    1
    24    10    11    2
    25    10    12    2
    26    10    13    1
    27    13    14    1
    28    13    38    1
    29    13    39    1
    30    14    15    1
    31    14    40    1
    32    14    41    1
    33    15    20    1
    34    15    16    1
    35    15    42    1
    36    16    17    1
    37    16    43    1
    38    16    44    1
    39    17    18    1
    40    17    45    1
    41    17    46    1
    42    18    19    1
    43    18    47    1
    44    18    48    1
    45    19    20    1
    46    19    49    1
    47    19    50    1
    48    20    51    1
    49    20    52    1
    50    21    22    1
    51    21    53    1
    52    21    54    1
    53    22    23    1
    54    22    24    1
    55    22    25    1
    56    24    55    1
    57    24    56    1
    58    24    57    1
@<TRIPOS>SUBSTRUCTURE
     1 ZINC000451019064        1 TEMP              0 ****  ****    0 ROOT


##########                                Name:    ZINC000007167963
##########                DOCK_Rotatable_Bonds:                   8
##########                         Heavy_Atoms:                  25
##########                    Molecular_Weight:             378.433
##########                DOCK_Rotatable_Bonds:                   8
##########                       Formal_Charge:        -1.01328e-06
##########                     HBond_Acceptors:                  10
##########                        HBond_Donors:                   3
##########                         Heavy_Atoms:                  25
##########                          Grid_Score:          -31.855705
##########                     Grid_vdw_energy:          -29.822458
##########                      Grid_es_energy:           -2.033247
##########           Internal_energy_repulsive:            7.057335

@<TRIPOS>MOLECULE
ZINC000007167963
 39 41 1 0 0
SMALL
USER_CHARGES


@<TRIPOS>ATOM
      1 C1         -1.7216    2.5782   55.3977 C.3     1  ZINC000007167963   -0.0800
      2 C2         -0.6607    2.6825   56.4630 C.2     1  ZINC000007167963    0.0900
      3 C3          0.6327    3.0566   56.2644 C.2     1  ZINC000007167963   -0.1500
      4 C4          1.2656    3.4353   54.9836 C.2     1  ZINC000007167963    0.2600
      5 N5          2.4503    3.9755   54.8332 N.2     1  ZINC000007167963   -0.2700
      6 N6          2.6763    4.1694   53.5816 N.2     1  ZINC000007167963   -0.2800
      7 C7          1.6445    3.7607   52.8827 C.2     1  ZINC000007167963    0.1200
      8 S8          1.4841    3.8184   51.1290 S.3     1  ZINC000007167963    0.1500
      9 C9         -0.0402    2.8646   50.9213 C.3     1  ZINC000007167963   -0.1200
     10 H10        -0.0166    1.9946   51.5775 H       1  ZINC000007167963    0.1400
     11 C11        -1.2426    3.7406   51.2786 C.3     1  ZINC000007167963   -0.1500
     12 C12        -0.1574    2.4105   49.4891 C.2     1  ZINC000007167963    0.5300
     13 O13         0.7242    2.6683   48.6972 O.2     1  ZINC000007167963   -0.4900
     14 N14        -1.2419    1.7178   49.0884 N.am    1  ZINC000007167963   -0.6100
     15 C15        -1.3489    1.2986   47.7711 C.2     1  ZINC000007167963    0.0800
     16 C16        -0.8700    0.1073   47.2909 C.2     1  ZINC000007167963   -0.2400
     17 C17        -0.1772   -0.8825   48.1216 C.2     1  ZINC000007167963    0.5900
     18 N18         1.0949   -0.6645   48.5101 N.am    1  ZINC000007167963   -0.8400
     19 O19        -0.7507   -1.9011   48.4604 O.2     1  ZINC000007167963   -0.5600
     20 C20        -1.1219   -0.0696   45.8776 C.2     1  ZINC000007167963   -0.0900
     21 C21        -1.7637    0.9530   45.3305 C.2     1  ZINC000007167963   -0.2800
     22 S22        -2.1003    2.1905   46.5281 S.3     1  ZINC000007167963    0.3000
     23 O23         0.7320    3.2831   53.7516 O.3     1  ZINC000007167963   -0.2000
     24 C24         1.2687    3.0068   57.5874 C.2     1  ZINC000007167963   -0.1800
     25 C25         0.3120    2.6132   58.4439 C.2     1  ZINC000007167963   -0.0300
     26 O26        -0.8321    2.4280   57.7681 O.3     1  ZINC000007167963   -0.1700
     27 H27        -2.6610    2.2609   55.8504 H       1  ZINC000007167963    0.0800
     28 H28        -1.8570    3.5502   54.9234 H       1  ZINC000007167963    0.1000
     29 H29        -1.4142    1.8481   54.6490 H       1  ZINC000007167963    0.1000
     30 H30        -1.1578    4.0690   52.3145 H       1  ZINC000007167963    0.0900
     31 H31        -1.2661    4.6105   50.6224 H       1  ZINC000007167963    0.0800
     32 H32        -2.1604    3.1662   51.1536 H       1  ZINC000007167963    0.0800
     33 H33        -1.9475    1.5127   49.7216 H       1  ZINC000007167963    0.4400
     34 H34         1.5535   -1.3200   49.0587 H       1  ZINC000007167963    0.4000
     35 H35         1.5517    0.1478   48.2411 H       1  ZINC000007167963    0.4100
     36 H36        -0.8174   -0.9455   45.3243 H       1  ZINC000007167963    0.1500
     37 H37        -2.0449    1.0143   44.2895 H       1  ZINC000007167963    0.1700
     38 H38         2.2968    3.2388   57.8232 H       1  ZINC000007167963    0.1600
     39 H39         0.4419    2.4726   59.5068 H       1  ZINC000007167963    0.2200
@<TRIPOS>BOND
     1     1     2    1
     2     1    27    1
     3     1    28    1
     4     1    29    1
     5     2    26    1
     6     2     3    2
     7     3     4    1
     8     3    24    1
     9     4    23    1
    10     4     5    2
    11     5     6    1
    12     6     7    2
    13     7     8    1
    14     7    23    1
    15     8     9    1
    16     9    10    1
    17     9    11    1
    18     9    12    1
    19    11    30    1
    20    11    31    1
    21    11    32    1
    22    12    13    2
    23    12    14   am
    24    14    15    1
    25    14    33    1
    26    15    22    1
    27    15    16    2
    28    16    17    1
    29    16    20    1
    30    17    18   am
    31    17    19    2
    32    18    34    1
    33    18    35    1
    34    20    21    2
    35    20    36    1
    36    21    22    1
    37    21    37    1
    38    24    25    2
    39    24    38    1
    40    25    26    1
    41    25    39    1
@<TRIPOS>SUBSTRUCTURE
     1 ZINC000007167963        1 TEMP              0 ****  ****    0 ROOT


##########                                Name:    ZINC001456607258
##########                DOCK_Rotatable_Bonds:                   9
##########                         Heavy_Atoms:                  25
##########                    Molecular_Weight:             339.437
##########                DOCK_Rotatable_Bonds:                   9
##########                       Formal_Charge:          -0.0200009
##########                     HBond_Acceptors:                   5
##########                        HBond_Donors:                   2
##########                         Heavy_Atoms:                  25
##########                          Grid_Score:          -31.854546
##########                     Grid_vdw_energy:          -29.270233
##########                      Grid_es_energy:           -2.584313
##########           Internal_energy_repulsive:           13.242226

@<TRIPOS>MOLECULE
ZINC001456607258
 50 52 1 0 0
SMALL
USER_CHARGES


@<TRIPOS>ATOM
      1 C1         -0.8911    4.7811   45.4553 C.3     1  ZINC001456607258   -0.1600
      2 C2         -1.3943    3.3520   45.2418 C.3     1  ZINC001456607258   -0.1100
      3 C3         -0.9041    2.4626   46.3862 C.3     1  ZINC001456607258   -0.1000
      4 H4          0.0985    2.7710   46.6823 H       1  ZINC001456607258    0.0900
      5 C5         -0.8731    1.0050   45.9219 C.3     1  ZINC001456607258   -0.0700
      6 C6         -0.0208    0.1955   46.8650 C.ar    1  ZINC001456607258   -0.0800
      7 C7          1.3497    0.3755   46.8855 C.ar    1  ZINC001456607258   -0.1200
      8 C8          2.1314   -0.3670   47.7505 C.ar    1  ZINC001456607258   -0.1200
      9 C9          1.5427   -1.2893   48.5954 C.ar    1  ZINC001456607258   -0.1200
     10 C10         0.1723   -1.4686   48.5755 C.ar    1  ZINC001456607258   -0.1200
     11 C11        -0.6100   -0.7230   47.7136 C.ar    1  ZINC001456607258   -0.1200
     12 C12        -1.8383    2.5956   47.5612 C.2     1  ZINC001456607258    0.5200
     13 O13        -2.8425    1.9179   47.6174 O.2     1  ZINC001456607258   -0.5300
     14 N14        -1.5578    3.4677   48.5498 N.am    1  ZINC001456607258   -0.7300
     15 C15        -2.4658    3.5971   49.6921 C.3     1  ZINC001456607258    0.1300
     16 C16        -1.6912    4.1218   50.9026 C.3     1  ZINC001456607258   -0.1400
     17 C17        -2.2570    3.6480   52.2535 C.3     1  ZINC001456607258    0.1100
     18 N18        -0.8520    3.4445   52.6568 N.am    1  ZINC001456607258   -0.6500
     19 C19        -0.2034    3.4125   53.8379 C.2     1  ZINC001456607258    0.6100
     20 O20         0.9972    3.2205   53.8674 O.2     1  ZINC001456607258   -0.5400
     21 C21        -0.9487    3.6101   55.0926 C.2     1  ZINC001456607258   -0.2300
     22 C22        -0.4265    3.9139   56.3197 C.2     1  ZINC001456607258    0.0400
     23 N23        -1.4401    4.0095   57.2009 N.pl3   1  ZINC001456607258   -0.5500
     24 C24        -2.6317    3.7737   56.5793 C.2     1  ZINC001456607258   -0.0200
     25 C25        -2.4014    3.5272   55.2775 C.2     1  ZINC001456607258   -0.1400
     26 C26        -0.4425    3.2902   51.2474 C.3     1  ZINC001456607258    0.1100
     27 H27        -1.1621    5.3940   44.5955 H       1  ZINC001456607258    0.0600
     28 H28        -1.3460    5.1959   46.3549 H       1  ZINC001456607258    0.0600
     29 H29         0.1930    4.7717   45.5675 H       1  ZINC001456607258    0.0600
     30 H30        -2.4841    3.3498   45.2211 H       1  ZINC001456607258    0.0800
     31 H31        -1.0121    2.9699   44.2952 H       1  ZINC001456607258    0.0700
     32 H32        -1.8868    0.6047   45.9138 H       1  ZINC001456607258    0.0800
     33 H33        -0.4536    0.9526   44.9172 H       1  ZINC001456607258    0.0900
     34 H34         1.8096    1.0961   46.2254 H       1  ZINC001456607258    0.1200
     35 H35         3.2022   -0.2268   47.7660 H       1  ZINC001456607258    0.1200
     36 H36         2.1536   -1.8699   49.2707 H       1  ZINC001456607258    0.1200
     37 H37        -0.2876   -2.1894   49.2353 H       1  ZINC001456607258    0.1200
     38 H38        -1.6808   -0.8631   47.6980 H       1  ZINC001456607258    0.1200
     39 H39        -0.7545    4.0097   48.5049 H       1  ZINC001456607258    0.4000
     40 H40        -3.2661    4.2940   49.4430 H       1  ZINC001456607258    0.0700
     41 H41        -2.8932    2.6227   49.9287 H       1  ZINC001456607258    0.0800
     42 H42        -1.5044    5.1947   50.8550 H       1  ZINC001456607258    0.1100
     43 H43        -2.7663    4.4309   52.8155 H       1  ZINC001456607258    0.0800
     44 H44        -2.8336    2.7253   52.1890 H       1  ZINC001456607258    0.0900
     45 H45         0.6208    4.0532   56.5437 H       1  ZINC001456607258    0.1700
     46 H46        -1.3378    4.2161   58.1432 H       1  ZINC001456607258    0.4200
     47 H47        -3.6016    3.7878   57.0541 H       1  ZINC001456607258    0.1700
     48 H48        -3.1389    3.3049   54.5204 H       1  ZINC001456607258    0.1500
     49 H49        -0.4860    2.2622   50.8873 H       1  ZINC001456607258    0.0900
     50 H50         0.4971    3.7873   51.0060 H       1  ZINC001456607258    0.0900
@<TRIPOS>BOND
     1     1     2    1
     2     1    27    1
     3     1    28    1
     4     1    29    1
     5     2     3    1
     6     2    30    1
     7     2    31    1
     8     3     4    1
     9     3     5    1
    10     3    12    1
    11     5     6    1
    12     5    32    1
    13     5    33    1
    14     6    11   ar
    15     6     7   ar
    16     7     8   ar
    17     7    34    1
    18     8     9   ar
    19     8    35    1
    20     9    10   ar
    21     9    36    1
    22    10    11   ar
    23    10    37    1
    24    11    38    1
    25    12    13    2
    26    12    14   am
    27    14    15    1
    28    14    39    1
    29    15    16    1
    30    15    40    1
    31    15    41    1
    32    16    26    1
    33    16    17    1
    34    16    42    1
    35    17    18    1
    36    17    43    1
    37    17    44    1
    38    18    19   am
    39    18    26    1
    40    19    20    2
    41    19    21    1
    42    21    25    1
    43    21    22    2
    44    22    23    1
    45    22    45    1
    46    23    24    1
    47    23    46    1
    48    24    25    2
    49    24    47    1
    50    25    48    1
    51    26    49    1
    52    26    50    1
@<TRIPOS>SUBSTRUCTURE
     1 ZINC001456607258        1 TEMP              0 ****  ****    0 ROOT


##########                                Name:    ZINC000430767928
##########                DOCK_Rotatable_Bonds:                   4
##########                         Heavy_Atoms:                  25
##########                    Molecular_Weight:             358.505
##########                DOCK_Rotatable_Bonds:                   4
##########                       Formal_Charge:          -0.0100002
##########                     HBond_Acceptors:                   5
##########                        HBond_Donors:                   0
##########                         Heavy_Atoms:                  25
##########                          Grid_Score:          -31.851616
##########                     Grid_vdw_energy:          -31.522594
##########                      Grid_es_energy:           -0.329022
##########           Internal_energy_repulsive:           16.561464

@<TRIPOS>MOLECULE
ZINC000430767928
 51 55 1 0 0
SMALL
USER_CHARGES


@<TRIPOS>ATOM
      1 O1          0.5206    4.6659   48.8138 O.2     1  ZINC000430767928   -0.4600
      2 C2         -0.5411    4.1376   49.0653 C.2     1  ZINC000430767928    0.5300
      3 C3         -1.5949    4.6148   50.0354 C.3     1  ZINC000430767928    0.0400
      4 H4         -2.1231    5.5010   49.6835 H       1  ZINC000430767928    0.1400
      5 C5         -1.0208    4.7853   51.4570 C.3     1  ZINC000430767928   -0.1100
      6 C6         -2.2418    4.4483   52.3506 C.3     1  ZINC000430767928   -0.1000
      7 H7         -2.7485    5.3622   52.6606 H       1  ZINC000430767928    0.1000
      8 C8         -1.7993    3.6448   53.5752 C.3     1  ZINC000430767928   -0.0800
      9 C9         -0.7894    4.4617   54.3837 C.3     1  ZINC000430767928   -0.1100
     10 C10        -0.3470    3.6580   55.6082 C.3     1  ZINC000430767928   -0.1200
     11 C11        -1.5647    3.3453   56.4801 C.3     1  ZINC000430767928   -0.1200
     12 C12        -2.5746    2.5285   55.6716 C.3     1  ZINC000430767928   -0.1200
     13 C13        -3.0170    3.3321   54.4471 C.3     1  ZINC000430767928   -0.1200
     14 C14        -3.1675    3.5985   51.4534 C.3     1  ZINC000430767928    0.1600
     15 N15        -2.4756    3.4201   50.1659 N.am    1  ZINC000430767928   -0.6400
     16 C16        -2.2240    2.6702   49.0882 C.2     1  ZINC000430767928    0.7400
     17 O17        -2.9612    1.7959   48.6765 O.2     1  ZINC000430767928   -0.5100
     18 N18        -1.0369    2.9985   48.5329 N.am    1  ZINC000430767928   -0.5800
     19 C19        -0.3671    2.2158   47.4913 C.3     1  ZINC000430767928    0.2600
     20 H20         0.5612    2.7105   47.2055 H       1  ZINC000430767928    0.1200
     21 C21        -0.0605    0.8375   48.0177 C.2     1  ZINC000430767928   -0.2100
     22 C22         1.1055    0.4562   48.5414 C.2     1  ZINC000430767928   -0.1200
     23 C23         1.1537   -0.8624   48.9598 C.2     1  ZINC000430767928   -0.1400
     24 C24         0.0268   -1.5519   48.7757 C.2     1  ZINC000430767928   -0.2300
     25 S25        -1.1877   -0.5125   48.0422 S.3     1  ZINC000430767928    0.1700
     26 C26        -1.2821    2.1035   46.2701 C.3     1  ZINC000430767928   -0.1700
     27 C27        -0.9318    2.9502   45.0447 C.3     1  ZINC000430767928   -0.1700
     28 C28        -0.7098    1.4365   45.0177 C.3     1  ZINC000430767928   -0.1600
     29 H29        -0.2062    4.0829   51.6328 H       1  ZINC000430767928    0.0800
     30 H30        -0.6916    5.8114   51.6214 H       1  ZINC000430767928    0.1000
     31 H31        -1.3362    2.7130   53.2504 H       1  ZINC000430767928    0.0700
     32 H32         0.0781    4.6844   53.7624 H       1  ZINC000430767928    0.0600
     33 H33        -1.2526    5.3933   54.7084 H       1  ZINC000430767928    0.0700
     34 H34         0.1162    2.7264   55.2833 H       1  ZINC000430767928    0.0600
     35 H35         0.3725    4.2400   56.1841 H       1  ZINC000430767928    0.0600
     36 H36        -1.2496    2.7729   57.3524 H       1  ZINC000430767928    0.0600
     37 H37        -2.0279    4.2770   56.8049 H       1  ZINC000430767928    0.0600
     38 H38        -2.1115    1.5967   55.3468 H       1  ZINC000430767928    0.0600
     39 H39        -3.4422    2.3057   56.2928 H       1  ZINC000430767928    0.0600
     40 H40        -3.4803    4.2637   54.7719 H       1  ZINC000430767928    0.0700
     41 H41        -3.7365    2.7500   53.8712 H       1  ZINC000430767928    0.0600
     42 H42        -3.3546    2.6314   51.9201 H       1  ZINC000430767928    0.0900
     43 H43        -4.1092    4.1217   51.2873 H       1  ZINC000430767928    0.0800
     44 H44         1.9482    1.1255   48.6320 H       1  ZINC000430767928    0.1400
     45 H45         2.0368   -1.2998   49.4014 H       1  ZINC000430767928    0.1400
     46 H46        -0.1187   -2.5890   49.0399 H       1  ZINC000430767928    0.1600
     47 H47        -2.3383    1.9443   46.4871 H       1  ZINC000430767928    0.1200
     48 H48        -1.7577    3.3483   44.4553 H       1  ZINC000430767928    0.1000
     49 H49        -0.0497    3.5871   45.1086 H       1  ZINC000430767928    0.1000
     50 H50         0.3184    1.0778   45.0636 H       1  ZINC000430767928    0.1000
     51 H51        -1.3898    0.8390   44.4104 H       1  ZINC000430767928    0.1000
@<TRIPOS>BOND
     1     1     2    2
     2     2    18   am
     3     2     3    1
     4     3     4    1
     5     3    15    1
     6     3     5    1
     7     5     6    1
     8     5    29    1
     9     5    30    1
    10     6     7    1
    11     6     8    1
    12     6    14    1
    13     8    13    1
    14     8     9    1
    15     8    31    1
    16     9    10    1
    17     9    32    1
    18     9    33    1
    19    10    11    1
    20    10    34    1
    21    10    35    1
    22    11    12    1
    23    11    36    1
    24    11    37    1
    25    12    13    1
    26    12    38    1
    27    12    39    1
    28    13    40    1
    29    13    41    1
    30    14    15    1
    31    14    42    1
    32    14    43    1
    33    15    16   am
    34    16    17    2
    35    16    18   am
    36    18    19    1
    37    19    20    1
    38    19    21    1
    39    19    26    1
    40    21    25    1
    41    21    22    2
    42    22    23    1
    43    22    44    1
    44    23    24    2
    45    23    45    1
    46    24    25    1
    47    24    46    1
    48    26    28    1
    49    26    27    1
    50    26    47    1
    51    27    28    1
    52    27    48    1
    53    27    49    1
    54    28    50    1
    55    28    51    1
@<TRIPOS>SUBSTRUCTURE
     1 ZINC000430767928        1 TEMP              0 ****  ****    0 ROOT


##########                                Name:    ZINC000481050680
##########                DOCK_Rotatable_Bonds:                   7
##########                         Heavy_Atoms:                  29
##########                    Molecular_Weight:              412.46
##########                DOCK_Rotatable_Bonds:                   7
##########                       Formal_Charge:          -0.0199997
##########                     HBond_Acceptors:                   7
##########                        HBond_Donors:                   1
##########                         Heavy_Atoms:                  29
##########                          Grid_Score:          -31.833288
##########                     Grid_vdw_energy:          -30.986656
##########                      Grid_es_energy:           -0.846632
##########           Internal_energy_repulsive:           12.170317

@<TRIPOS>MOLECULE
ZINC000481050680
 47 49 1 0 0
SMALL
USER_CHARGES


@<TRIPOS>ATOM
      1 N1         -0.4742    0.0653   43.1046 N.1     1  ZINC000481050680   -0.3900
      2 C2         -0.7331    0.4438   44.1438 C.1     1  ZINC000481050680    0.2500
      3 C3         -1.0596    0.9210   45.4540 C.ar    1  ZINC000481050680    0.0200
      4 C4         -1.4247    2.2552   45.6432 C.ar    1  ZINC000481050680   -0.0800
      5 C5         -1.7387    2.7095   46.9077 C.ar    1  ZINC000481050680   -0.0800
      6 C6         -1.6927    1.8470   47.9877 C.ar    1  ZINC000481050680   -0.1000
      7 C7         -2.0371    2.3509   49.3656 C.3     1  ZINC000481050680   -0.5900
      8 S8         -0.6071    3.2189   50.0670 S.o2    1  ZINC000481050680    2.6000
      9 O9          0.5592    2.4120   49.9774 O.2     1  ZINC000481050680   -0.9300
     10 O10        -0.5928    4.5765   49.6475 O.2     1  ZINC000481050680   -0.9400
     11 N11        -0.9262    3.2964   51.6902 N.am    1  ZINC000481050680   -1.1100
     12 C12        -2.1269    3.9862   52.1685 C.3     1  ZINC000481050680    0.2100
     13 H13        -2.9092    3.9202   51.4124 H       1  ZINC000481050680    0.1000
     14 C14        -1.7981    5.4565   52.4352 C.3     1  ZINC000481050680   -0.0800
     15 C15        -3.0479    6.1808   52.8647 C.ar    1  ZINC000481050680   -0.0900
     16 C16        -3.8653    6.7696   51.9181 C.ar    1  ZINC000481050680   -0.1200
     17 C17        -5.0117    7.4341   52.3120 C.ar    1  ZINC000481050680   -0.1200
     18 C18        -5.3409    7.5093   53.6525 C.ar    1  ZINC000481050680   -0.1200
     19 C19        -4.5239    6.9198   54.5990 C.ar    1  ZINC000481050680   -0.1200
     20 C20        -3.3798    6.2517   54.2048 C.ar    1  ZINC000481050680   -0.1200
     21 C21        -2.6040    3.3389   53.4429 C.ar    1  ZINC000481050680   -0.1300
     22 C22        -1.6880    2.8862   54.3732 C.ar    1  ZINC000481050680   -0.0700
     23 C23        -2.1255    2.2922   55.5426 C.ar    1  ZINC000481050680   -0.1300
     24 C24        -3.4793    2.1501   55.7823 C.ar    1  ZINC000481050680   -0.0900
     25 C25        -4.3974    2.6016   54.8530 C.ar    1  ZINC000481050680   -0.1500
     26 C26        -3.9607    3.2026   53.6848 C.ar    1  ZINC000481050680    0.1100
     27 F27        -4.8571    3.6444   52.7758 F       1  ZINC000481050680   -0.1400
     28 C28        -1.3316    0.5209   47.8082 C.ar    1  ZINC000481050680    0.1200
     29 F29        -1.2894   -0.3161   48.8679 F       1  ZINC000481050680   -0.1200
     30 C30        -1.0196    0.0525   46.5465 C.ar    1  ZINC000481050680   -0.1000
     31 H31        -1.4610    2.9307   44.8013 H       1  ZINC000481050680    0.1500
     32 H32        -2.0209    3.7417   47.0544 H       1  ZINC000481050680    0.1500
     33 H33        -2.8823    3.0362   49.3011 H       1  ZINC000481050680    0.1500
     34 H34        -2.3004    1.5085   50.0051 H       1  ZINC000481050680    0.1500
     35 H35        -0.3181    2.8850   52.3242 H       1  ZINC000481050680    0.4200
     36 H36        -1.0496    5.5239   53.2247 H       1  ZINC000481050680    0.0900
     37 H37        -1.4084    5.9124   51.5252 H       1  ZINC000481050680    0.0900
     38 H38        -3.6081    6.7108   50.8708 H       1  ZINC000481050680    0.1200
     39 H39        -5.6500    7.8946   51.5725 H       1  ZINC000481050680    0.1200
     40 H40        -6.2362    8.0291   53.9603 H       1  ZINC000481050680    0.1200
     41 H41        -4.7809    6.9790   55.6463 H       1  ZINC000481050680    0.1200
     42 H42        -2.7415    5.7911   54.9442 H       1  ZINC000481050680    0.1200
     43 H43        -0.6299    2.9961   54.1866 H       1  ZINC000481050680    0.1300
     44 H44        -1.4088    1.9388   56.2691 H       1  ZINC000481050680    0.1300
     45 H45        -3.8199    1.6856   56.6960 H       1  ZINC000481050680    0.1300
     46 H46        -5.4552    2.4899   55.0403 H       1  ZINC000481050680    0.1400
     47 H47        -0.7386   -0.9809   46.4066 H       1  ZINC000481050680    0.1600
@<TRIPOS>BOND
     1     1     2    3
     2     2     3    1
     3     3    30   ar
     4     3     4   ar
     5     4     5   ar
     6     4    31    1
     7     5     6   ar
     8     5    32    1
     9     6     7    1
    10     6    28   ar
    11     7     8    1
    12     7    33    1
    13     7    34    1
    14     8     9    2
    15     8    10    2
    16     8    11   am
    17    11    12    1
    18    11    35    1
    19    12    13    1
    20    12    14    1
    21    12    21    1
    22    14    15    1
    23    14    36    1
    24    14    37    1
    25    15    20   ar
    26    15    16   ar
    27    16    17   ar
    28    16    38    1
    29    17    18   ar
    30    17    39    1
    31    18    19   ar
    32    18    40    1
    33    19    20   ar
    34    19    41    1
    35    20    42    1
    36    21    26   ar
    37    21    22   ar
    38    22    23   ar
    39    22    43    1
    40    23    24   ar
    41    23    44    1
    42    24    25   ar
    43    24    45    1
    44    25    26   ar
    45    25    46    1
    46    26    27    1
    47    28    29    1
    48    28    30   ar
    49    30    47    1
@<TRIPOS>SUBSTRUCTURE
     1 ZINC000481050680        1 TEMP              0 ****  ****    0 ROOT


##########                                Name:    ZINC000175255939
##########                DOCK_Rotatable_Bonds:                   8
##########                         Heavy_Atoms:                  28
##########                    Molecular_Weight:             394.375
##########                DOCK_Rotatable_Bonds:                   8
##########                       Formal_Charge:          -0.0399999
##########                     HBond_Acceptors:                   9
##########                        HBond_Donors:                   1
##########                         Heavy_Atoms:                  28
##########                          Grid_Score:          -31.820543
##########                     Grid_vdw_energy:          -31.906973
##########                      Grid_es_energy:            0.086429
##########           Internal_energy_repulsive:           12.572357

@<TRIPOS>MOLECULE
ZINC000175255939
 48 50 1 0 0
SMALL
USER_CHARGES


@<TRIPOS>ATOM
      1 C1         -9.5467    0.6652   54.1364 C.3     1  ZINC000175255939    0.0300
      2 O2         -8.5009    1.6723   54.1551 O.3     1  ZINC000175255939   -0.3600
      3 C3         -8.0196    2.0288   55.3564 C.2     1  ZINC000175255939    0.4600
      4 O4         -8.4583    1.5170   56.3591 O.2     1  ZINC000175255939   -0.5000
      5 C5         -6.9321    3.0674   55.4543 C.3     1  ZINC000175255939   -0.0800
      6 H6         -7.3802    4.0496   55.6052 H       1  ZINC000175255939    0.1100
      7 C7         -6.0167    2.7376   56.6350 C.3     1  ZINC000175255939   -0.1200
      8 C8         -4.9126    3.7921   56.7343 C.3     1  ZINC000175255939   -0.1100
      9 C9         -4.0950    3.7978   55.4412 C.3     1  ZINC000175255939   -0.1200
     10 C10        -5.0103    4.1276   54.2605 C.3     1  ZINC000175255939   -0.1000
     11 H11        -5.4583    5.1097   54.4114 H       1  ZINC000175255939    0.1100
     12 C12        -4.2049    4.1332   52.9867 C.2     1  ZINC000175255939    0.5100
     13 O13        -3.6250    5.1404   52.6403 O.2     1  ZINC000175255939   -0.4800
     14 N14        -4.1291    3.0188   52.2326 N.am    1  ZINC000175255939   -0.6300
     15 C15        -3.3888    3.0244   51.0588 C.2     1  ZINC000175255939    0.2100
     16 C16        -3.3654    2.0515   50.1046 C.2     1  ZINC000175255939   -0.2600
     17 C17        -2.4599    2.5502   49.1324 C.2     1  ZINC000175255939    0.0900
     18 C18        -2.0577    1.8875   47.8672 C.ar    1  ZINC000175255939   -0.0500
     19 C19        -1.9145    0.5019   47.8197 C.ar    1  ZINC000175255939   -0.0600
     20 C20        -1.5407   -0.1113   46.6427 C.ar    1  ZINC000175255939   -0.1300
     21 C21        -1.3064    0.6503   45.5055 C.ar    1  ZINC000175255939    0.1200
     22 O22        -0.9382    0.0435   44.3472 O.3     1  ZINC000175255939   -0.3200
     23 C23         0.1892    0.5887   43.6590 C.3     1  ZINC000175255939    0.4100
     24 F24         1.2511    0.7470   44.5561 F       1  ZINC000175255939   -0.2000
     25 F25         0.5725   -0.2792   42.6310 F       1  ZINC000175255939   -0.2000
     26 C26        -1.4484    2.0308   45.5499 C.ar    1  ZINC000175255939   -0.1900
     27 C27        -1.8281    2.6488   46.7226 C.ar    1  ZINC000175255939   -0.0500
     28 N28        -2.0495    3.7144   49.5762 N.2     1  ZINC000175255939   -0.3600
     29 O29        -2.5590    3.9918   50.6367 O.3     1  ZINC000175255939    0.1200
     30 C30        -6.1144    3.0732   54.1611 C.3     1  ZINC000175255939   -0.0900
     31 H31        -9.8449    0.4701   53.1062 H       1  ZINC000175255939    0.1000
     32 H32        -9.1736   -0.2545   54.5870 H       1  ZINC000175255939    0.0600
     33 H33       -10.4068    1.0239   54.7018 H       1  ZINC000175255939    0.0600
     34 H34        -6.5993    2.7336   57.5563 H       1  ZINC000175255939    0.0800
     35 H35        -5.5686    1.7555   56.4840 H       1  ZINC000175255939    0.0700
     36 H36        -5.3606    4.7742   56.8853 H       1  ZINC000175255939    0.0700
     37 H37        -4.2605    3.5571   57.5756 H       1  ZINC000175255939    0.0800
     38 H38        -3.3083    4.5490   55.5120 H       1  ZINC000175255939    0.0700
     39 H39        -3.6468    2.8157   55.2903 H       1  ZINC000175255939    0.0800
     40 H40        -4.5919    2.2128   52.5103 H       1  ZINC000175255939    0.4300
     41 H41        -3.9092    1.1185   50.0915 H       1  ZINC000175255939    0.1800
     42 H42        -2.0959   -0.0909   48.7041 H       1  ZINC000175255939    0.1400
     43 H43        -1.4295   -1.1849   46.6053 H       1  ZINC000175255939    0.1400
     44 H44        -0.0768    1.5576   43.2364 H       1  ZINC000175255939    0.1900
     45 H45        -1.2655    2.6206   44.6639 H       1  ZINC000175255939    0.1400
     46 H46        -1.9386    3.7225   46.7564 H       1  ZINC000175255939    0.1400
     47 H47        -5.6664    2.0911   54.0102 H       1  ZINC000175255939    0.0900
     48 H48        -6.7666    3.3081   53.3199 H       1  ZINC000175255939    0.0800
@<TRIPOS>BOND
     1     1     2    1
     2     1    31    1
     3     1    32    1
     4     1    33    1
     5     2     3    1
     6     3     4    2
     7     3     5    1
     8     5     6    1
     9     5    30    1
    10     5     7    1
    11     7     8    1
    12     7    34    1
    13     7    35    1
    14     8     9    1
    15     8    36    1
    16     8    37    1
    17     9    10    1
    18     9    38    1
    19     9    39    1
    20    10    11    1
    21    10    12    1
    22    10    30    1
    23    12    13    2
    24    12    14   am
    25    14    15    1
    26    14    40    1
    27    15    29    1
    28    15    16    2
    29    16    17    1
    30    16    41    1
    31    17    18    1
    32    17    28    2
    33    18    27   ar
    34    18    19   ar
    35    19    20   ar
    36    19    42    1
    37    20    21   ar
    38    20    43    1
    39    21    22    1
    40    21    26   ar
    41    22    23    1
    42    23    24    1
    43    23    25    1
    44    23    44    1
    45    26    27   ar
    46    26    45    1
    47    27    46    1
    48    28    29    1
    49    30    47    1
    50    30    48    1
@<TRIPOS>SUBSTRUCTURE
     1 ZINC000175255939        1 TEMP              0 ****  ****    0 ROOT


##########                                Name:    ZINC000263872566
##########                DOCK_Rotatable_Bonds:                   9
##########                         Heavy_Atoms:                  26
##########                    Molecular_Weight:             362.469
##########                DOCK_Rotatable_Bonds:                   9
##########                       Formal_Charge:           0.0300001
##########                     HBond_Acceptors:                   6
##########                        HBond_Donors:                   2
##########                         Heavy_Atoms:                  26
##########                          Grid_Score:          -31.816055
##########                     Grid_vdw_energy:          -29.176994
##########                      Grid_es_energy:           -2.639060
##########           Internal_energy_repulsive:           24.547472

@<TRIPOS>MOLECULE
ZINC000263872566
 56 57 1 0 0
SMALL
USER_CHARGES


@<TRIPOS>ATOM
      1 C1          5.5018   -0.5131   41.2238 C.3     1  ZINC000263872566   -0.1800
      2 C2          4.6872    0.7582   40.9763 C.3     1  ZINC000263872566    0.1400
      3 H3          5.1808    1.6047   41.4539 H       1  ZINC000263872566    0.0700
      4 O4          4.5894    0.9951   39.5705 O.3     1  ZINC000263872566   -0.5600
      5 C5          3.3059    0.5904   41.5549 C.ar    1  ZINC000263872566   -0.0800
      6 C6          2.2916    0.0603   40.7796 C.ar    1  ZINC000263872566   -0.0900
      7 C7          1.0244   -0.0937   41.3101 C.ar    1  ZINC000263872566   -0.1000
      8 C8          0.7718    0.2819   42.6163 C.ar    1  ZINC000263872566   -0.1100
      9 C9         -0.6097    0.1144   43.1947 C.3     1  ZINC000263872566    0.1800
     10 N10        -0.8545    1.1645   44.1864 N.am    1  ZINC000263872566   -0.7400
     11 C11        -1.2623    0.8364   45.4284 C.2     1  ZINC000263872566    0.7100
     12 O12        -1.4270   -0.3310   45.7258 O.2     1  ZINC000263872566   -0.5900
     13 N13        -1.4874    1.8025   46.3410 N.am    1  ZINC000263872566   -0.6300
     14 C14        -1.9265    1.4602   47.7007 C.3     1  ZINC000263872566    0.1100
     15 C15        -0.9748    2.1163   48.7059 C.3     1  ZINC000263872566   -0.1200
     16 C16        -0.9030    3.6196   48.4282 C.3     1  ZINC000263872566   -0.0800
     17 C17         0.0060    4.2736   49.4366 C.2     1  ZINC000263872566    0.4700
     18 O18         1.1947    4.3343   49.2286 O.2     1  ZINC000263872566   -0.5000
     19 O19        -0.5048    4.7887   50.5660 O.3     1  ZINC000263872566   -0.3500
     20 C20         0.1045    4.3703   51.8159 C.3     1  ZINC000263872566    0.1200
     21 C21        -0.8823    4.5926   52.9638 C.3     1  ZINC000263872566   -0.1800
     22 C22         0.4667    2.8860   51.7349 C.3     1  ZINC000263872566   -0.1400
     23 C23         1.3711    5.1913   52.0658 C.3     1  ZINC000263872566   -0.1800
     24 C24        -0.3539    3.8542   47.0191 C.3     1  ZINC000263872566   -0.1300
     25 C25        -1.2928    3.2175   45.9966 C.3     1  ZINC000263872566    0.1300
     26 C26         1.7865    0.8106   43.3921 C.ar    1  ZINC000263872566   -0.1000
     27 C27         3.0544    0.9611   42.8626 C.ar    1  ZINC000263872566   -0.1100
     28 H28         5.0083   -1.3595   40.7463 H       1  ZINC000263872566    0.0700
     29 H29         6.5010   -0.3916   40.8054 H       1  ZINC000263872566    0.0600
     30 H30         5.5765   -0.6937   42.2961 H       1  ZINC000263872566    0.0700
     31 H31         4.1599    0.2807   39.0802 H       1  ZINC000263872566    0.3800
     32 H32         2.4890   -0.2331   39.7591 H       1  ZINC000263872566    0.1300
     33 H33         0.2318   -0.5071   40.7042 H       1  ZINC000263872566    0.1300
     34 H34        -1.3490    0.1884   42.3970 H       1  ZINC000263872566    0.0800
     35 H35        -0.6875   -0.8620   43.6727 H       1  ZINC000263872566    0.0800
     36 H36        -0.7231    2.0959   43.9493 H       1  ZINC000263872566    0.4000
     37 H37        -2.9393    1.8298   47.8614 H       1  ZINC000263872566    0.0800
     38 H38        -1.9054    0.3781   47.8299 H       1  ZINC000263872566    0.0800
     39 H39        -1.3438    1.9505   49.7180 H       1  ZINC000263872566    0.0900
     40 H40         0.0189    1.6798   48.6044 H       1  ZINC000263872566    0.0800
     41 H41        -1.9010    4.0511   48.5054 H       1  ZINC000263872566    0.1100
     42 H42        -1.7846    4.0076   52.7857 H       1  ZINC000263872566    0.0600
     43 H43        -0.4249    4.2785   53.9021 H       1  ZINC000263872566    0.0700
     44 H44        -1.1403    5.6501   53.0215 H       1  ZINC000263872566    0.0800
     45 H45         1.1696    2.7275   50.9171 H       1  ZINC000263872566    0.0700
     46 H46         0.9240    2.5719   52.6732 H       1  ZINC000263872566    0.0800
     47 H47        -0.4357    2.3010   51.5568 H       1  ZINC000263872566    0.0700
     48 H48         1.1130    6.2488   52.1235 H       1  ZINC000263872566    0.0800
     49 H49         1.8285    4.8773   53.0040 H       1  ZINC000263872566    0.0700
     50 H50         2.0740    5.0330   51.2480 H       1  ZINC000263872566    0.0600
     51 H51        -0.2812    4.9253   46.8307 H       1  ZINC000263872566    0.0900
     52 H52         0.6338    3.4013   46.9335 H       1  ZINC000263872566    0.0700
     53 H53        -0.8560    3.2959   45.0010 H       1  ZINC000263872566    0.1000
     54 H54        -2.2556    3.7282   46.0168 H       1  ZINC000263872566    0.0700
     55 H55         1.5891    1.1038   44.4126 H       1  ZINC000263872566    0.1300
     56 H56         3.8471    1.3742   43.4687 H       1  ZINC000263872566    0.1300
@<TRIPOS>BOND
     1     1     2    1
     2     1    28    1
     3     1    29    1
     4     1    30    1
     5     2     3    1
     6     2     4    1
     7     2     5    1
     8     4    31    1
     9     5    27   ar
    10     5     6   ar
    11     6     7   ar
    12     6    32    1
    13     7     8   ar
    14     7    33    1
    15     8     9    1
    16     8    26   ar
    17     9    10    1
    18     9    34    1
    19     9    35    1
    20    10    11   am
    21    10    36    1
    22    11    12    2
    23    11    13   am
    24    13    25    1
    25    13    14    1
    26    14    15    1
    27    14    37    1
    28    14    38    1
    29    15    16    1
    30    15    39    1
    31    15    40    1
    32    16    17    1
    33    16    24    1
    34    16    41    1
    35    17    18    2
    36    17    19    1
    37    19    20    1
    38    20    21    1
    39    20    22    1
    40    20    23    1
    41    21    42    1
    42    21    43    1
    43    21    44    1
    44    22    45    1
    45    22    46    1
    46    22    47    1
    47    23    48    1
    48    23    49    1
    49    23    50    1
    50    24    25    1
    51    24    51    1
    52    24    52    1
    53    25    53    1
    54    25    54    1
    55    26    27   ar
    56    26    55    1
    57    27    56    1
@<TRIPOS>SUBSTRUCTURE
     1 ZINC000263872566        1 TEMP              0 ****  ****    0 ROOT


##########                                Name:    ZINC001217683559
##########                DOCK_Rotatable_Bonds:                   3
##########                         Heavy_Atoms:                  25
##########                    Molecular_Weight:             397.234
##########                DOCK_Rotatable_Bonds:                   3
##########                       Formal_Charge:          0.00999987
##########                     HBond_Acceptors:                   7
##########                        HBond_Donors:                   0
##########                         Heavy_Atoms:                  25
##########                          Grid_Score:          -31.813263
##########                     Grid_vdw_energy:          -30.787436
##########                      Grid_es_energy:           -1.025827
##########           Internal_energy_repulsive:            5.517668

@<TRIPOS>MOLECULE
ZINC001217683559
 38 42 1 0 0
SMALL
USER_CHARGES


@<TRIPOS>ATOM
      1 Br1         2.0778    1.5742   46.4695 Br      1  ZINC001217683559    0.0100
      2 C2          1.1311    1.0360   44.9235 C.ar    1  ZINC001217683559   -0.1200
      3 C3          1.7871    0.8957   43.7109 C.ar    1  ZINC001217683559   -0.0500
      4 C4          1.0525    0.4988   42.6034 C.ar    1  ZINC001217683559   -0.1500
      5 C5         -0.3025    0.2562   42.7396 C.ar    1  ZINC001217683559    0.1200
      6 N6         -0.9014    0.3975   43.9040 N.ar    1  ZINC001217683559   -0.4400
      7 C7         -0.2350    0.7690   44.9886 C.ar    1  ZINC001217683559    0.2200
      8 C8         -0.9530    0.9152   46.2800 C.2     1  ZINC001217683559    0.2100
      9 N9         -1.4700   -0.0522   46.9927 N.2     1  ZINC001217683559   -0.3300
     10 O10        -1.9884    0.3926   47.9947 O.3     1  ZINC001217683559    0.1000
     11 C11        -1.8519    1.7276   48.0258 C.2     1  ZINC001217683559    0.2300
     12 C12        -2.3454    2.6387   49.0790 C.2     1  ZINC001217683559   -0.0600
     13 C13        -3.0124    2.1365   50.1605 C.2     1  ZINC001217683559    0.1800
     14 N14        -3.4688    2.9657   51.1316 N.pl3   1  ZINC001217683559   -0.2900
     15 N15        -4.1690    2.7460   52.3266 N.2     1  ZINC001217683559   -0.3300
     16 C16        -4.3547    3.9184   52.8856 C.2     1  ZINC001217683559    0.2800
     17 C17        -5.0668    4.1538   54.1927 C.3     1  ZINC001217683559   -0.0300
     18 C18        -6.5803    3.8895   54.1261 C.3     1  ZINC001217683559   -0.1200
     19 C19        -6.4504    3.2496   55.5184 C.3     1  ZINC001217683559   -0.1400
     20 C20        -4.9814    2.9643   55.1636 C.3     1  ZINC001217683559   -0.1200
     21 N21        -3.8198    4.8642   52.1261 N.2     1  ZINC001217683559   -0.5300
     22 C22        -3.2714    4.3159   51.0483 C.2     1  ZINC001217683559    0.2900
     23 C23        -2.5865    4.8596   49.9442 C.2     1  ZINC001217683559   -0.1000
     24 C24        -2.1229    4.0318   48.9719 C.2     1  ZINC001217683559   -0.0200
     25 N25        -1.1872    2.0699   46.9376 N.2     1  ZINC001217683559   -0.4300
     26 H26         2.8461    1.0915   43.6301 H       1  ZINC001217683559    0.1600
     27 H27         1.5338    0.3806   41.6438 H       1  ZINC001217683559    0.1500
     28 H28        -0.8773   -0.0530   41.8791 H       1  ZINC001217683559    0.1800
     29 H29        -3.1776    1.0724   50.2423 H       1  ZINC001217683559    0.1900
     30 H30        -4.8087    5.1093   54.6493 H       1  ZINC001217683559    0.1200
     31 H31        -7.1822    4.7983   54.1177 H       1  ZINC001217683559    0.0700
     32 H32        -6.8664    3.1839   53.3462 H       1  ZINC001217683559    0.1000
     33 H33        -6.5719    3.9582   56.3377 H       1  ZINC001217683559    0.0800
     34 H34        -7.0523    2.3495   55.6431 H       1  ZINC001217683559    0.0800
     35 H35        -4.8305    2.0055   54.6673 H       1  ZINC001217683559    0.0900
     36 H36        -4.2927    3.1258   55.9928 H       1  ZINC001217683559    0.0700
     37 H37        -2.4278    5.9255   49.8729 H       1  ZINC001217683559    0.1700
     38 H38        -1.5961    4.4348   48.1196 H       1  ZINC001217683559    0.1700
@<TRIPOS>BOND
     1     1     2    1
     2     2     7   ar
     3     2     3   ar
     4     3     4   ar
     5     3    26    1
     6     4     5   ar
     7     4    27    1
     8     5     6   ar
     9     5    28    1
    10     6     7   ar
    11     7     8    1
    12     8    25    1
    13     8     9    2
    14     9    10    1
    15    10    11    1
    16    11    12    1
    17    11    25    2
    18    12    24    1
    19    12    13    2
    20    13    14    1
    21    13    29    1
    22    14    22    1
    23    14    15    1
    24    15    16    2
    25    16    17    1
    26    16    21    1
    27    17    20    1
    28    17    18    1
    29    17    30    1
    30    18    19    1
    31    18    31    1
    32    18    32    1
    33    19    20    1
    34    19    33    1
    35    19    34    1
    36    20    35    1
    37    20    36    1
    38    21    22    2
    39    22    23    1
    40    23    24    2
    41    23    37    1
    42    24    38    1
@<TRIPOS>SUBSTRUCTURE
     1 ZINC001217683559        1 TEMP              0 ****  ****    0 ROOT


##########                                Name:    ZINC001078748831
##########                DOCK_Rotatable_Bonds:                   6
##########                         Heavy_Atoms:                  23
##########                    Molecular_Weight:             333.417
##########                DOCK_Rotatable_Bonds:                   6
##########                       Formal_Charge:           0.0299999
##########                     HBond_Acceptors:                   9
##########                        HBond_Donors:                   2
##########                         Heavy_Atoms:                  23
##########                          Grid_Score:          -31.808361
##########                     Grid_vdw_energy:          -30.145266
##########                      Grid_es_energy:           -1.663095
##########           Internal_energy_repulsive:            7.246834

@<TRIPOS>MOLECULE
ZINC001078748831
 42 45 1 0 0
SMALL
USER_CHARGES


@<TRIPOS>ATOM
      1 C1         -5.0908    4.2861   53.7632 C.3     1  ZINC001078748831    0.1000
      2 N2         -4.4410    3.7405   52.5689 N.pl3   1  ZINC001078748831   -0.1400
      3 N3         -4.5949    2.5379   52.1428 N.2     1  ZINC001078748831   -0.2900
      4 C4         -3.8783    2.3733   51.0570 C.2     1  ZINC001078748831    0.0400
      5 C5         -3.2410    3.6090   50.8275 C.2     1  ZINC001078748831   -0.0500
      6 C6         -2.3189    3.9484   49.7233 C.2     1  ZINC001078748831    0.6200
      7 O7         -1.9039    5.0849   49.6057 O.2     1  ZINC001078748831   -0.5200
      8 N8         -1.9384    2.9978   48.8470 N.am    1  ZINC001078748831   -0.7000
      9 C9         -1.0258    3.3346   47.7515 C.3     1  ZINC001078748831    0.1500
     10 H10        -0.7469    4.3883   47.7408 H       1  ZINC001078748831    0.1100
     11 C11        -1.4828    2.8026   46.3810 C.3     1  ZINC001078748831   -0.1800
     12 C12        -0.6894    1.5213   46.6956 C.3     1  ZINC001078748831    0.0800
     13 H13        -1.2738    0.7610   47.2138 H       1  ZINC001078748831    0.1000
     14 N14         0.0489    0.9872   45.5434 N.3     1  ZINC001078748831   -0.6700
     15 C15        -0.8594    0.6895   44.4280 C.3     1  ZINC001078748831    0.1400
     16 C16        -0.0536    0.3696   43.1953 C.2     1  ZINC001078748831    0.0600
     17 N17        -0.5082   -0.3243   42.1891 N.2     1  ZINC001078748831   -0.5700
     18 S18         0.6200   -0.4348   41.1174 S.3     1  ZINC001078748831    0.6800
     19 N19         1.7289    0.3766   41.8559 N.2     1  ZINC001078748831   -0.5700
     20 C20         1.2496    0.7828   42.9988 C.2     1  ZINC001078748831    0.0500
     21 C21         0.1651    2.3833   47.6303 C.3     1  ZINC001078748831   -0.1000
     22 C22         1.5425    2.8892   47.2005 C.3     1  ZINC001078748831   -0.1000
     23 C23         1.9258    2.8509   48.6910 C.3     1  ZINC001078748831   -0.1400
     24 C24         0.8300    1.7846   48.8703 C.3     1  ZINC001078748831   -0.1200
     25 N25        -3.6460    4.4039   51.8063 N.2     1  ZINC001078748831   -0.2500
     26 H26        -6.0513    4.7216   53.4874 H       1  ZINC001078748831    0.1000
     27 H27        -5.2488    3.4873   54.4878 H       1  ZINC001078748831    0.1100
     28 H28        -4.4560    5.0553   54.2030 H       1  ZINC001078748831    0.1100
     29 H29        -3.7935    1.4760   50.4620 H       1  ZINC001078748831    0.2100
     30 H30        -2.2686    2.0907   48.9416 H       1  ZINC001078748831    0.4100
     31 H31        -2.5589    2.6432   46.3118 H       1  ZINC001078748831    0.0700
     32 H32        -1.0830    3.3672   45.5387 H       1  ZINC001078748831    0.1000
     33 H33         0.7787    1.6219   45.2558 H       1  ZINC001078748831    0.3500
     34 H34        -1.4836   -0.1660   44.6861 H       1  ZINC001078748831    0.1000
     35 H35        -1.4923    1.5554   44.2337 H       1  ZINC001078748831    0.0600
     36 H36         1.8094    1.3696   43.7121 H       1  ZINC001078748831    0.2000
     37 H37         2.0977    2.1792   46.5875 H       1  ZINC001078748831    0.1000
     38 H38         1.5273    3.8940   46.7784 H       1  ZINC001078748831    0.0700
     39 H39         2.9331    2.4759   48.8727 H       1  ZINC001078748831    0.0700
     40 H40         1.7189    3.7819   49.2186 H       1  ZINC001078748831    0.0800
     41 H41         0.2456    1.9070   49.7823 H       1  ZINC001078748831    0.0700
     42 H42         1.1849    0.7640   48.7268 H       1  ZINC001078748831    0.0900
@<TRIPOS>BOND
     1     1     2    1
     2     1    26    1
     3     1    27    1
     4     1    28    1
     5     2    25    1
     6     2     3    1
     7     3     4    2
     8     4     5    1
     9     4    29    1
    10     5     6    1
    11     5    25    2
    12     6     7    2
    13     6     8   am
    14     8     9    1
    15     8    30    1
    16     9    10    1
    17     9    21    1
    18     9    11    1
    19    11    12    1
    20    11    31    1
    21    11    32    1
    22    12    13    1
    23    12    14    1
    24    12    21    1
    25    14    15    1
    26    14    33    1
    27    15    16    1
    28    15    34    1
    29    15    35    1
    30    16    20    1
    31    16    17    2
    32    17    18    1
    33    18    19    1
    34    19    20    2
    35    20    36    1
    36    21    24    1
    37    21    22    1
    38    22    23    1
    39    22    37    1
    40    22    38    1
    41    23    24    1
    42    23    39    1
    43    23    40    1
    44    24    41    1
    45    24    42    1
@<TRIPOS>SUBSTRUCTURE
     1 ZINC001078748831        1 TEMP              0 ****  ****    0 ROOT


##########                                Name:    ZINC000002634904
##########                DOCK_Rotatable_Bonds:                   7
##########                         Heavy_Atoms:                  31
##########                    Molecular_Weight:             423.498
##########                DOCK_Rotatable_Bonds:                   7
##########                       Formal_Charge:        -7.45058e-08
##########                     HBond_Acceptors:                   7
##########                        HBond_Donors:                   1
##########                         Heavy_Atoms:                  31
##########                          Grid_Score:          -31.797382
##########                     Grid_vdw_energy:          -29.546949
##########                      Grid_es_energy:           -2.250432
##########           Internal_energy_repulsive:            6.799698

@<TRIPOS>MOLECULE
ZINC000002634904
 48 51 1 0 0
SMALL
USER_CHARGES


@<TRIPOS>ATOM
      1 N1         -8.1342    3.0921   59.2719 N.1     1  ZINC000002634904   -0.4100
      2 C2         -7.4349    3.0477   58.3778 C.1     1  ZINC000002634904    0.2500
      3 C3         -6.5533    2.9918   57.2507 C.ar    1  ZINC000002634904   -0.0400
      4 C4         -5.2143    3.3679   57.3892 C.ar    1  ZINC000002634904   -0.0500
      5 C5         -4.3696    3.3129   56.3032 C.ar    1  ZINC000002634904   -0.1400
      6 C6         -4.8474    2.8836   55.0693 C.ar    1  ZINC000002634904    0.1700
      7 N7         -3.9884    2.8291   53.9710 N.am    1  ZINC000002634904   -0.6700
      8 C8         -4.3075    3.4769   52.8331 C.2     1  ZINC000002634904    0.5400
      9 O9         -5.3413    4.1071   52.7635 O.2     1  ZINC000002634904   -0.5000
     10 C10        -3.3797    3.4180   51.6469 C.3     1  ZINC000002634904   -0.1700
     11 S11        -3.4578    4.9833   50.7415 S.3     1  ZINC000002634904    0.1300
     12 C12        -2.2629    4.6701   49.4851 C.ar    1  ZINC000002634904    0.2100
     13 N13        -1.3544    5.5967   49.2015 N.ar    1  ZINC000002634904   -0.2900
     14 N14        -0.4628    5.4116   48.2921 N.ar    1  ZINC000002634904   -0.1600
     15 C15        -0.4277    4.2748   47.6050 C.ar    1  ZINC000002634904    0.0600
     16 C16         0.5983    4.0597   46.5579 C.ar    1  ZINC000002634904   -0.0500
     17 C17         1.6233    3.1363   46.7614 C.ar    1  ZINC000002634904   -0.0800
     18 C18         2.5760    2.9403   45.7826 C.ar    1  ZINC000002634904   -0.1200
     19 C19         2.5159    3.6581   44.6016 C.ar    1  ZINC000002634904   -0.1000
     20 C20         1.5017    4.5756   44.3940 C.ar    1  ZINC000002634904   -0.1200
     21 C21         0.5396    4.7757   45.3628 C.ar    1  ZINC000002634904   -0.0800
     22 C22        -1.3816    3.2767   47.8883 C.ar    1  ZINC000002634904    0.2300
     23 C23        -1.3792    1.9942   47.1465 C.ar    1  ZINC000002634904   -0.0700
     24 C24        -0.9943    0.8163   47.7860 C.ar    1  ZINC000002634904   -0.0700
     25 C25        -0.9945   -0.3752   47.0901 C.ar    1  ZINC000002634904   -0.1200
     26 C26        -1.3756   -0.4027   45.7605 C.ar    1  ZINC000002634904   -0.0900
     27 C27        -1.7580    0.7625   45.1205 C.ar    1  ZINC000002634904   -0.1200
     28 C28        -1.7674    1.9592   45.8076 C.ar    1  ZINC000002634904   -0.0700
     29 N29        -2.2814    3.5100   48.8409 N.ar    1  ZINC000002634904   -0.4400
     30 C30        -6.1793    2.5081   54.9278 C.ar    1  ZINC000002634904   -0.1200
     31 C31        -7.0285    2.5554   56.0107 C.ar    1  ZINC000002634904   -0.0500
     32 H32        -4.8428    3.7017   58.3468 H       1  ZINC000002634904    0.1400
     33 H33        -3.3350    3.6038   56.4094 H       1  ZINC000002634904    0.1400
     34 H34        -3.1614    2.3251   54.0266 H       1  ZINC000002634904    0.4200
     35 H35        -2.3597    3.2481   51.9916 H       1  ZINC000002634904    0.1300
     36 H36        -3.6816    2.6026   50.9896 H       1  ZINC000002634904    0.1300
     37 H37         1.6715    2.5758   47.6833 H       1  ZINC000002634904    0.1300
     38 H38         3.3701    2.2254   45.9390 H       1  ZINC000002634904    0.1300
     39 H39         3.2643    3.5018   43.8387 H       1  ZINC000002634904    0.1300
     40 H40         1.4600    5.1331   43.4699 H       1  ZINC000002634904    0.1300
     41 H41        -0.2520    5.4920   45.1995 H       1  ZINC000002634904    0.1200
     42 H42        -0.6962    0.8367   48.8240 H       1  ZINC000002634904    0.1300
     43 H43        -0.6963   -1.2880   47.5843 H       1  ZINC000002634904    0.1300
     44 H44        -1.3742   -1.3377   45.2200 H       1  ZINC000002634904    0.1300
     45 H45        -2.0541    0.7349   44.0823 H       1  ZINC000002634904    0.1300
     46 H46        -2.0661    2.8682   45.3068 H       1  ZINC000002634904    0.1300
     47 H47        -6.5466    2.1749   53.9684 H       1  ZINC000002634904    0.1500
     48 H48        -8.0623    2.2633   55.9002 H       1  ZINC000002634904    0.1400
@<TRIPOS>BOND
     1     1     2    3
     2     2     3    1
     3     3    31   ar
     4     3     4   ar
     5     4     5   ar
     6     4    32    1
     7     5     6   ar
     8     5    33    1
     9     6     7    1
    10     6    30   ar
    11     7     8   am
    12     7    34    1
    13     8     9    2
    14     8    10    1
    15    10    11    1
    16    10    35    1
    17    10    36    1
    18    11    12    1
    19    12    29   ar
    20    12    13   ar
    21    13    14   ar
    22    14    15   ar
    23    15    16    1
    24    15    22   ar
    25    16    21   ar
    26    16    17   ar
    27    17    18   ar
    28    17    37    1
    29    18    19   ar
    30    18    38    1
    31    19    20   ar
    32    19    39    1
    33    20    21   ar
    34    20    40    1
    35    21    41    1
    36    22    23    1
    37    22    29   ar
    38    23    28   ar
    39    23    24   ar
    40    24    25   ar
    41    24    42    1
    42    25    26   ar
    43    25    43    1
    44    26    27   ar
    45    26    44    1
    46    27    28   ar
    47    27    45    1
    48    28    46    1
    49    30    31   ar
    50    30    47    1
    51    31    48    1
@<TRIPOS>SUBSTRUCTURE
     1 ZINC000002634904        1 TEMP              0 ****  ****    0 ROOT


##########                                Name:    ZINC000194290865
##########                DOCK_Rotatable_Bonds:                   7
##########                         Heavy_Atoms:                  28
##########                    Molecular_Weight:             387.479
##########                DOCK_Rotatable_Bonds:                   7
##########                       Formal_Charge:          -0.0400003
##########                     HBond_Acceptors:                   7
##########                        HBond_Donors:                   0
##########                         Heavy_Atoms:                  28
##########                          Grid_Score:          -31.792234
##########                     Grid_vdw_energy:          -30.651419
##########                      Grid_es_energy:           -1.140815
##########           Internal_energy_repulsive:           31.559441

@<TRIPOS>MOLECULE
ZINC000194290865
 57 59 1 0 0
SMALL
USER_CHARGES


@<TRIPOS>ATOM
      1 C1        -11.9873    2.9614   51.1483 C.3     1  ZINC000194290865   -0.1500
      2 C2        -12.2854    3.1587   52.6359 C.3     1  ZINC000194290865    0.0600
      3 O3        -11.3748    2.3474   53.4238 O.3     1  ZINC000194290865   -0.3600
      4 C4        -11.5929    1.0230   53.4352 C.2     1  ZINC000194290865    0.4700
      5 O5        -12.5220    0.5584   52.8180 O.2     1  ZINC000194290865   -0.4900
      6 C6        -10.6791    0.1155   54.2177 C.3     1  ZINC000194290865   -0.0600
      7 C7         -9.4652   -0.2732   53.3714 C.3     1  ZINC000194290865   -0.0700
      8 C8         -9.9378   -0.9391   52.0774 C.3     1  ZINC000194290865   -0.1700
      9 C9         -8.6563    0.9807   53.0338 C.3     1  ZINC000194290865   -0.1600
     10 C10       -10.2263    0.8065   55.5247 C.3     1  ZINC000194290865   -0.1200
     11 C11       -11.2109    0.2344   56.5755 C.3     1  ZINC000194290865    0.0900
     12 N12       -11.3844   -1.1730   56.1476 N.am    1  ZINC000194290865   -0.6100
     13 C13       -11.4752   -2.2577   56.9421 C.2     1  ZINC000194290865    0.5800
     14 O14       -11.6172   -3.3604   56.4513 O.2     1  ZINC000194290865   -0.5000
     15 C15       -11.4021   -2.1061   58.4126 C.ar    1  ZINC000194290865    0.0100
     16 C16       -12.5170   -2.3790   59.2284 C.ar    1  ZINC000194290865   -0.2200
     17 C17       -12.4049   -2.2221   60.6207 C.ar    1  ZINC000194290865    0.3000
     18 N18       -11.2603   -1.8217   61.1526 N.ar    1  ZINC000194290865   -0.4700
     19 C19       -10.2022   -1.5594   60.4156 C.ar    1  ZINC000194290865    0.2100
     20 C20        -8.9316   -1.1083   61.0888 C.3     1  ZINC000194290865   -0.1100
     21 C21       -10.2250   -1.6937   59.0368 C.ar    1  ZINC000194290865   -0.1800
     22 O22       -13.6029   -2.5456   61.1482 O.3     1  ZINC000194290865   -0.0800
     23 N23       -14.4903   -2.9106   60.1107 N.2     1  ZINC000194290865   -0.2600
     24 C24       -13.8849   -2.8243   58.9655 C.2     1  ZINC000194290865    0.1600
     25 C25       -14.4816   -3.1266   57.6151 C.3     1  ZINC000194290865   -0.0400
     26 C26       -14.4448   -4.6359   57.3675 C.3     1  ZINC000194290865   -0.1500
     27 C27       -15.9313   -2.6387   57.5774 C.3     1  ZINC000194290865   -0.1400
     28 C28       -11.4387   -1.1441   54.6739 C.3     1  ZINC000194290865    0.1200
     29 H29       -10.9604    3.2620   50.9405 H       1  ZINC000194290865    0.0700
     30 H30       -12.1182    1.9111   50.8877 H       1  ZINC000194290865    0.0700
     31 H31       -12.6710    3.5704   50.5568 H       1  ZINC000194290865    0.0800
     32 H32       -12.1545    4.2090   52.8964 H       1  ZINC000194290865    0.0700
     33 H33       -13.3123    2.8581   52.8436 H       1  ZINC000194290865    0.0700
     34 H34        -8.8401   -0.9691   53.9309 H       1  ZINC000194290865    0.0900
     35 H35       -10.5140   -1.8324   52.3179 H       1  ZINC000194290865    0.0500
     36 H36       -10.5629   -0.2430   51.5180 H       1  ZINC000194290865    0.0800
     37 H37        -9.0730   -1.2160   51.4745 H       1  ZINC000194290865    0.0600
     38 H38        -8.3196    1.4551   53.9556 H       1  ZINC000194290865    0.0500
     39 H39        -7.7914    0.7039   52.4309 H       1  ZINC000194290865    0.0600
     40 H40        -9.2814    1.6768   52.4744 H       1  ZINC000194290865    0.0800
     41 H41        -9.1996    0.5345   55.7695 H       1  ZINC000194290865    0.0900
     42 H42       -10.3319    1.8885   55.4458 H       1  ZINC000194290865    0.0900
     43 H43       -10.7776    0.2820   57.5746 H       1  ZINC000194290865    0.0900
     44 H44       -12.1615    0.7667   56.5419 H       1  ZINC000194290865    0.0900
     45 H45        -8.3232   -1.9780   61.3367 H       1  ZINC000194290865    0.0900
     46 H46        -8.3756   -0.4558   60.4156 H       1  ZINC000194290865    0.0900
     47 H47        -9.1771   -0.5647   62.0012 H       1  ZINC000194290865    0.0900
     48 H48        -9.3444   -1.4732   58.4516 H       1  ZINC000194290865    0.1600
     49 H49       -13.9066   -2.6174   56.8416 H       1  ZINC000194290865    0.1100
     50 H50       -15.0198   -5.1451   58.1410 H       1  ZINC000194290865    0.0700
     51 H51       -14.8765   -4.8546   56.3908 H       1  ZINC000194290865    0.0700
     52 H52       -13.4121   -4.9835   57.3944 H       1  ZINC000194290865    0.0600
     53 H53       -15.9574   -1.5633   57.7537 H       1  ZINC000194290865    0.0600
     54 H54       -16.3628   -2.8572   56.6006 H       1  ZINC000194290865    0.0700
     55 H55       -16.5062   -3.1477   58.3508 H       1  ZINC000194290865    0.0600
     56 H56       -12.4755   -1.0932   54.3416 H       1  ZINC000194290865    0.0800
     57 H57       -10.9590   -2.0346   54.2674 H       1  ZINC000194290865    0.1000
@<TRIPOS>BOND
     1     1     2    1
     2     1    29    1
     3     1    30    1
     4     1    31    1
     5     2     3    1
     6     2    32    1
     7     2    33    1
     8     3     4    1
     9     4     5    2
    10     4     6    1
    11     6    28    1
    12     6     7    1
    13     6    10    1
    14     7     8    1
    15     7     9    1
    16     7    34    1
    17     8    35    1
    18     8    36    1
    19     8    37    1
    20     9    38    1
    21     9    39    1
    22     9    40    1
    23    10    11    1
    24    10    41    1
    25    10    42    1
    26    11    12    1
    27    11    43    1
    28    11    44    1
    29    12    13   am
    30    12    28    1
    31    13    14    2
    32    13    15    1
    33    15    21   ar
    34    15    16   ar
    35    16    24    1
    36    16    17   ar
    37    17    18   ar
    38    17    22    1
    39    18    19   ar
    40    19    20    1
    41    19    21   ar
    42    20    45    1
    43    20    46    1
    44    20    47    1
    45    21    48    1
    46    22    23    1
    47    23    24    2
    48    24    25    1
    49    25    26    1
    50    25    27    1
    51    25    49    1
    52    26    50    1
    53    26    51    1
    54    26    52    1
    55    27    53    1
    56    27    54    1
    57    27    55    1
    58    28    56    1
    59    28    57    1
@<TRIPOS>SUBSTRUCTURE
     1 ZINC000194290865        1 TEMP              0 ****  ****    0 ROOT


##########                                Name:    ZINC000182044395
##########                DOCK_Rotatable_Bonds:                   8
##########                         Heavy_Atoms:                  28
##########                    Molecular_Weight:             398.889
##########                DOCK_Rotatable_Bonds:                   8
##########                       Formal_Charge:          -0.0399999
##########                     HBond_Acceptors:                   6
##########                        HBond_Donors:                   2
##########                         Heavy_Atoms:                  28
##########                          Grid_Score:          -31.781221
##########                     Grid_vdw_energy:          -30.407307
##########                      Grid_es_energy:           -1.373915
##########           Internal_energy_repulsive:           15.766286

@<TRIPOS>MOLECULE
ZINC000182044395
 51 53 1 0 0
SMALL
USER_CHARGES


@<TRIPOS>ATOM
      1 C1          1.9645    3.5604   55.5734 C.3     1  ZINC000182044395   -0.1800
      2 C2          1.2382    2.3280   55.0306 C.3     1  ZINC000182044395    0.0800
      3 N3          0.2475    2.7441   54.0348 N.pl3   1  ZINC000182044395   -0.4800
      4 C4          0.5486    2.6110   52.7365 C.2     1  ZINC000182044395    0.2500
      5 C5         -0.3282    2.9787   51.7369 C.2     1  ZINC000182044395   -0.3500
      6 C6          0.0403    2.8161   50.3219 C.2     1  ZINC000182044395    0.5900
      7 O7          0.9786    3.4390   49.8622 O.2     1  ZINC000182044395   -0.5600
      8 N8         -0.6617    1.9769   49.5348 N.am    1  ZINC000182044395   -0.7200
      9 C9         -0.2947    1.8150   48.1258 C.3     1  ZINC000182044395    0.1100
     10 H10         0.1058    2.7542   47.7444 H       1  ZINC000182044395    0.0900
     11 C11         0.7650    0.7189   47.9975 C.3     1  ZINC000182044395   -0.1600
     12 C12        -1.5338    1.4235   47.3179 C.3     1  ZINC000182044395    0.1100
     13 H13        -1.4720    0.3697   47.0459 H       1  ZINC000182044395    0.1100
     14 O14        -2.7053    1.6442   48.1057 O.3     1  ZINC000182044395   -0.5500
     15 C15        -1.6048    2.2745   46.0485 C.3     1  ZINC000182044395   -0.1100
     16 C16        -0.6631    1.7137   45.0143 C.ar    1  ZINC000182044395   -0.0800
     17 C17         0.5821    2.2854   44.8310 C.ar    1  ZINC000182044395   -0.1000
     18 C18         1.4458    1.7712   43.8820 C.ar    1  ZINC000182044395   -0.1200
     19 C19         1.0647    0.6847   43.1170 C.ar    1  ZINC000182044395   -0.1200
     20 C20        -0.1824    0.1160   43.2970 C.ar    1  ZINC000182044395   -0.1200
     21 C21        -1.0446    0.6278   44.2487 C.ar    1  ZINC000182044395   -0.1200
     22 C22        -1.6355    3.5419   52.1093 C.2     1  ZINC000182044395    0.4400
     23 O23        -2.4425    3.8867   51.2639 O.2     1  ZINC000182044395   -0.4900
     24 C24        -1.9299    3.6665   53.5492 C.ar    1  ZINC000182044395   -0.1800
     25 C25        -3.1457    4.1843   53.9947 C.ar    1  ZINC000182044395   -0.0200
     26 C26        -3.3847    4.2923   55.3481 C.ar    1  ZINC000182044395   -0.0700
     27 Cl27       -4.8955    4.9365   55.9105 Cl      1  ZINC000182044395   -0.0500
     28 C28        -2.4222    3.8874   56.2633 C.ar    1  ZINC000182044395   -0.0500
     29 C29        -1.2173    3.3737   55.8362 C.ar    1  ZINC000182044395   -0.1600
     30 C30        -0.9545    3.2561   54.4739 C.ar    1  ZINC000182044395    0.1900
     31 H31         1.2427    4.2325   56.0376 H       1  ZINC000182044395    0.0700
     32 H32         2.7016    3.2509   56.3143 H       1  ZINC000182044395    0.0800
     33 H33         2.4666    4.0760   54.7547 H       1  ZINC000182044395    0.0700
     34 H34         0.7360    1.8124   55.8493 H       1  ZINC000182044395    0.1000
     35 H35         1.9599    1.6560   54.5663 H       1  ZINC000182044395    0.1100
     36 H36         1.5099    2.2018   52.4629 H       1  ZINC000182044395    0.1800
     37 H37        -1.4098    1.4801   49.9014 H       1  ZINC000182044395    0.4100
     38 H38         1.6477    0.9979   48.5730 H       1  ZINC000182044395    0.0600
     39 H39         0.3644   -0.2203   48.3788 H       1  ZINC000182044395    0.0600
     40 H40         1.0380    0.5985   46.9490 H       1  ZINC000182044395    0.0600
     41 H41        -2.9496    2.5756   48.1949 H       1  ZINC000182044395    0.3700
     42 H42        -1.3189    3.3001   46.2821 H       1  ZINC000182044395    0.0800
     43 H43        -2.6226    2.2610   45.6585 H       1  ZINC000182044395    0.0800
     44 H44         0.8800    3.1339   45.4289 H       1  ZINC000182044395    0.1200
     45 H45         2.4184    2.2181   43.7385 H       1  ZINC000182044395    0.1200
     46 H46         1.7394    0.2829   42.3756 H       1  ZINC000182044395    0.1200
     47 H47        -0.4819   -0.7300   42.6962 H       1  ZINC000182044395    0.1200
     48 H48        -2.0175    0.1813   44.3917 H       1  ZINC000182044395    0.1200
     49 H49        -3.8954    4.4989   53.2838 H       1  ZINC000182044395    0.1500
     50 H50        -2.6202    3.9759   57.3213 H       1  ZINC000182044395    0.1500
     51 H51        -0.4769    3.0620   56.5580 H       1  ZINC000182044395    0.1500
@<TRIPOS>BOND
     1     1     2    1
     2     1    31    1
     3     1    32    1
     4     1    33    1
     5     2     3    1
     6     2    34    1
     7     2    35    1
     8     3    30    1
     9     3     4    1
    10     4     5    2
    11     4    36    1
    12     5     6    1
    13     5    22    1
    14     6     7    2
    15     6     8   am
    16     8     9    1
    17     8    37    1
    18     9    10    1
    19     9    11    1
    20     9    12    1
    21    11    38    1
    22    11    39    1
    23    11    40    1
    24    12    13    1
    25    12    14    1
    26    12    15    1
    27    14    41    1
    28    15    16    1
    29    15    42    1
    30    15    43    1
    31    16    21   ar
    32    16    17   ar
    33    17    18   ar
    34    17    44    1
    35    18    19   ar
    36    18    45    1
    37    19    20   ar
    38    19    46    1
    39    20    21   ar
    40    20    47    1
    41    21    48    1
    42    22    23    2
    43    22    24    1
    44    24    30   ar
    45    24    25   ar
    46    25    26   ar
    47    25    49    1
    48    26    27    1
    49    26    28   ar
    50    28    29   ar
    51    28    50    1
    52    29    30   ar
    53    29    51    1
@<TRIPOS>SUBSTRUCTURE
     1 ZINC000182044395        1 TEMP              0 ****  ****    0 ROOT


##########                                Name:    ZINC000451500596
##########                DOCK_Rotatable_Bonds:                   7
##########                         Heavy_Atoms:                  25
##########                    Molecular_Weight:             365.497
##########                DOCK_Rotatable_Bonds:                   7
##########                       Formal_Charge:           0.0400004
##########                     HBond_Acceptors:                   7
##########                        HBond_Donors:                   2
##########                         Heavy_Atoms:                  25
##########                          Grid_Score:          -31.773834
##########                     Grid_vdw_energy:          -31.592800
##########                      Grid_es_energy:           -0.181034
##########           Internal_energy_repulsive:            9.072598

@<TRIPOS>MOLECULE
ZINC000451500596
 52 54 1 0 0
SMALL
USER_CHARGES


@<TRIPOS>ATOM
      1 C1         -4.1965    2.8306   56.4428 C.3     1  ZINC000451500596   -0.6700
      2 S2         -4.8762    3.3033   54.8287 S.o2    1  ZINC000451500596    2.6100
      3 O3         -5.8264    2.3434   54.3874 O.2     1  ZINC000451500596   -0.9500
      4 O4         -5.1709    4.6931   54.7996 O.2     1  ZINC000451500596   -0.9600
      5 N5         -3.6063    3.1331   53.7797 N.am    1  ZINC000451500596   -1.1200
      6 C6         -3.7862    3.4329   52.3570 C.3     1  ZINC000451500596    0.1200
      7 C7         -2.4847    4.0003   51.7868 C.3     1  ZINC000451500596   -0.1000
      8 H8         -1.6699    3.2931   51.9417 H       1  ZINC000451500596    0.0900
      9 C9         -2.1528    5.3456   52.4649 C.3     1  ZINC000451500596   -0.1200
     10 C10        -1.5513    6.2066   51.3265 C.3     1  ZINC000451500596   -0.1300
     11 C11        -2.4141    5.8074   50.1036 C.3     1  ZINC000451500596   -0.1300
     12 C12        -2.6504    4.2927   50.2852 C.3     1  ZINC000451500596    0.1400
     13 H13        -3.6582    4.0308   49.9629 H       1  ZINC000451500596    0.1000
     14 N14        -1.6636    3.5347   49.5120 N.am    1  ZINC000451500596   -0.7200
     15 C15        -2.0069    2.3588   48.9499 C.2     1  ZINC000451500596    0.5300
     16 O16        -3.1324    1.9275   49.0855 O.2     1  ZINC000451500596   -0.5300
     17 C17        -0.9924    1.5799   48.1531 C.3     1  ZINC000451500596   -0.1300
     18 H18         0.0204    1.8571   48.4452 H       1  ZINC000451500596    0.1000
     19 C19        -1.2145    0.0541   48.3247 C.3     1  ZINC000451500596   -0.1200
     20 C20        -0.6137   -0.4996   47.0086 C.3     1  ZINC000451500596    0.0500
     21 N21        -0.9792    0.4960   45.9785 N.3     1  ZINC000451500596   -0.4900
     22 C22         0.0168    0.5975   45.0046 C.ar    1  ZINC000451500596    0.0800
     23 C23         1.2897    1.0309   45.3532 C.ar    1  ZINC000451500596   -0.0900
     24 C24         2.2723    1.1297   44.3878 C.ar    1  ZINC000451500596   -0.1100
     25 C25         1.9901    0.7983   43.0753 C.ar    1  ZINC000451500596   -0.1200
     26 C26         0.7239    0.3667   42.7247 C.ar    1  ZINC000451500596   -0.1100
     27 C27        -0.2618    0.2600   43.6862 C.ar    1  ZINC000451500596   -0.1500
     28 C28        -1.2029    1.7979   46.6399 C.3     1  ZINC000451500596    0.0600
     29 H29        -3.8396    1.8016   56.3995 H       1  ZINC000451500596    0.1300
     30 H30        -3.3680    3.4922   56.6960 H       1  ZINC000451500596    0.1300
     31 H31        -4.9734    2.9140   57.2028 H       1  ZINC000451500596    0.1300
     32 H32        -2.7433    2.8349   54.1071 H       1  ZINC000451500596    0.4200
     33 H33        -4.0487    2.5194   51.8235 H       1  ZINC000451500596    0.0700
     34 H34        -4.5847    4.1653   52.2382 H       1  ZINC000451500596    0.0900
     35 H35        -3.0584    5.8093   52.8561 H       1  ZINC000451500596    0.0800
     36 H36        -1.4224    5.2016   53.2610 H       1  ZINC000451500596    0.0700
     37 H37        -1.6607    7.2686   51.5463 H       1  ZINC000451500596    0.0700
     38 H38        -0.5047    5.9511   51.1608 H       1  ZINC000451500596    0.0700
     39 H39        -3.3619    6.3457   50.1135 H       1  ZINC000451500596    0.0800
     40 H40        -1.8743    6.0005   49.1767 H       1  ZINC000451500596    0.0700
     41 H41        -0.7632    3.8790   49.4046 H       1  ZINC000451500596    0.4000
     42 H42        -0.6720   -0.3245   49.1911 H       1  ZINC000451500596    0.0800
     43 H43        -2.2765   -0.1801   48.3980 H       1  ZINC000451500596    0.0800
     44 H44         0.4703   -0.5803   47.0906 H       1  ZINC000451500596    0.0600
     45 H45        -1.0503   -1.4696   46.7707 H       1  ZINC000451500596    0.0900
     46 H46         1.5107    1.2904   46.3781 H       1  ZINC000451500596    0.1300
     47 H47         3.2622    1.4665   44.6583 H       1  ZINC000451500596    0.1300
     48 H48         2.7601    0.8773   42.3222 H       1  ZINC000451500596    0.1200
     49 H49         0.5068    0.1087   41.6988 H       1  ZINC000451500596    0.1200
     50 H50        -1.2503   -0.0774   43.4119 H       1  ZINC000451500596    0.1200
     51 H51        -2.2218    2.1377   46.4548 H       1  ZINC000451500596    0.1000
     52 H52        -0.4906    2.5322   46.2636 H       1  ZINC000451500596    0.0700
@<TRIPOS>BOND
     1     1     2    1
     2     1    29    1
     3     1    30    1
     4     1    31    1
     5     2     3    2
     6     2     4    2
     7     2     5   am
     8     5     6    1
     9     5    32    1
    10     6     7    1
    11     6    33    1
    12     6    34    1
    13     7     8    1
    14     7    12    1
    15     7     9    1
    16     9    10    1
    17     9    35    1
    18     9    36    1
    19    10    11    1
    20    10    37    1
    21    10    38    1
    22    11    12    1
    23    11    39    1
    24    11    40    1
    25    12    13    1
    26    12    14    1
    27    14    15   am
    28    14    41    1
    29    15    16    2
    30    15    17    1
    31    17    18    1
    32    17    28    1
    33    17    19    1
    34    19    20    1
    35    19    42    1
    36    19    43    1
    37    20    21    1
    38    20    44    1
    39    20    45    1
    40    21    22    1
    41    21    28    1
    42    22    27   ar
    43    22    23   ar
    44    23    24   ar
    45    23    46    1
    46    24    25   ar
    47    24    47    1
    48    25    26   ar
    49    25    48    1
    50    26    27   ar
    51    26    49    1
    52    27    50    1
    53    28    51    1
    54    28    52    1
@<TRIPOS>SUBSTRUCTURE
     1 ZINC000451500596        1 TEMP              0 ****  ****    0 ROOT


##########                                Name:    ZINC000047262406
##########                DOCK_Rotatable_Bonds:                   6
##########                         Heavy_Atoms:                  28
##########                    Molecular_Weight:             417.919
##########                DOCK_Rotatable_Bonds:                   6
##########                       Formal_Charge:          -0.0100002
##########                     HBond_Acceptors:                   9
##########                        HBond_Donors:                   1
##########                         Heavy_Atoms:                  28
##########                          Grid_Score:          -31.769861
##########                     Grid_vdw_energy:          -31.025743
##########                      Grid_es_energy:           -0.744117
##########           Internal_energy_repulsive:           15.376435

@<TRIPOS>MOLECULE
ZINC000047262406
 48 51 1 0 0
SMALL
USER_CHARGES


@<TRIPOS>ATOM
      1 C1         -2.0424    5.0158   51.3471 C.3     1  ZINC000047262406   -0.1500
      2 C2         -1.7792    3.5099   51.2830 C.3     1  ZINC000047262406    0.1800
      3 H3         -2.6909    2.9705   51.5402 H       1  ZINC000047262406    0.0800
      4 C4         -0.6894    3.1484   52.2590 C.2     1  ZINC000047262406    0.1700
      5 N5          0.5367    2.8258   51.9577 N.2     1  ZINC000047262406   -0.2500
      6 N6          1.1948    2.5781   53.0351 N.2     1  ZINC000047262406   -0.2700
      7 C7          0.4021    2.7361   54.0728 C.2     1  ZINC000047262406    0.2400
      8 C8          0.7660    2.5506   55.4855 C.2     1  ZINC000047262406   -0.1500
      9 C9         -0.0646    2.7511   56.5455 C.2     1  ZINC000047262406   -0.0600
     10 C10         0.5104    2.5102   57.7737 C.2     1  ZINC000047262406   -0.1400
     11 C11         1.7884    2.1188   57.7369 C.2     1  ZINC000047262406   -0.1900
     12 S12         2.3404    2.0277   56.0701 S.3     1  ZINC000047262406    0.1700
     13 O13        -0.8055    3.1063   53.5989 O.3     1  ZINC000047262406   -0.2200
     14 N14        -1.3604    3.1434   49.9235 N.3     1  ZINC000047262406   -0.5200
     15 C15        -0.5074    4.1849   49.3370 C.3     1  ZINC000047262406    0.0500
     16 C16         0.0269    3.7069   47.9849 C.3     1  ZINC000047262406   -0.1000
     17 C17        -1.1510    3.4021   47.0551 C.3     1  ZINC000047262406   -0.1100
     18 C18        -0.6326    2.8740   45.7422 C.2     1  ZINC000047262406    0.5100
     19 O19        -0.8107    3.5050   44.7220 O.2     1  ZINC000047262406   -0.4600
     20 N20         0.0290    1.7004   45.7021 N.am    1  ZINC000047262406   -0.6600
     21 C21         0.5087    1.2117   44.4872 C.ar    1  ZINC000047262406    0.3600
     22 C22        -0.3245    0.4536   43.6732 C.ar    1  ZINC000047262406   -0.2000
     23 C23         0.1634   -0.0252   42.4698 C.ar    1  ZINC000047262406   -0.0400
     24 C24         1.4743    0.2725   42.1211 C.ar    1  ZINC000047262406   -0.1200
     25 Cl25        2.1360   -0.3028   40.6227 Cl      1  ZINC000047262406   -0.0500
     26 C26         2.2464    1.0324   42.9798 C.ar    1  ZINC000047262406    0.1500
     27 N27         1.7514    1.4788   44.1180 N.ar    1  ZINC000047262406   -0.4600
     28 C28        -2.0497    2.3500   47.7109 C.3     1  ZINC000047262406   -0.1100
     29 C29        -2.5236    2.8673   49.0709 C.3     1  ZINC000047262406    0.0600
     30 H30        -2.8306    5.2772   50.6410 H       1  ZINC000047262406    0.0800
     31 H31        -2.3532    5.2877   52.3558 H       1  ZINC000047262406    0.0700
     32 H32        -1.1307    5.5551   51.0899 H       1  ZINC000047262406    0.0800
     33 H33        -1.0894    3.0726   56.4326 H       1  ZINC000047262406    0.1600
     34 H34        -0.0320    2.6293   58.7001 H       1  ZINC000047262406    0.1600
     35 H35         2.3912    1.8886   58.6030 H       1  ZINC000047262406    0.1800
     36 H36        -1.0904    5.0950   49.1959 H       1  ZINC000047262406    0.0400
     37 H37         0.3285    4.3892   50.0060 H       1  ZINC000047262406    0.0900
     38 H38         0.6473    4.4864   47.5426 H       1  ZINC000047262406    0.0800
     39 H39         0.6214    2.8045   48.1268 H       1  ZINC000047262406    0.0900
     40 H40        -1.7229    4.3134   46.8808 H       1  ZINC000047262406    0.1000
     41 H41         0.1713    1.1958   46.5181 H       1  ZINC000047262406    0.4200
     42 H42        -1.3392    0.2408   43.9758 H       1  ZINC000047262406    0.1500
     43 H43        -0.4609   -0.6172   41.8169 H       1  ZINC000047262406    0.1500
     44 H44         3.2667    1.2664   42.7137 H       1  ZINC000047262406    0.1700
     45 H45        -2.9127    2.1600   47.0729 H       1  ZINC000047262406    0.0700
     46 H46        -1.4877    1.4262   47.8486 H       1  ZINC000047262406    0.0800
     47 H47        -3.1522    2.1146   49.5468 H       1  ZINC000047262406    0.0700
     48 H48        -3.0972    3.7836   48.9312 H       1  ZINC000047262406    0.0400
@<TRIPOS>BOND
     1     1     2    1
     2     1    30    1
     3     1    31    1
     4     1    32    1
     5     2     3    1
     6     2     4    1
     7     2    14    1
     8     4    13    1
     9     4     5    2
    10     5     6    1
    11     6     7    2
    12     7     8    1
    13     7    13    1
    14     8    12    1
    15     8     9    2
    16     9    10    1
    17     9    33    1
    18    10    11    2
    19    10    34    1
    20    11    12    1
    21    11    35    1
    22    14    29    1
    23    14    15    1
    24    15    16    1
    25    15    36    1
    26    15    37    1
    27    16    17    1
    28    16    38    1
    29    16    39    1
    30    17    18    1
    31    17    28    1
    32    17    40    1
    33    18    19    2
    34    18    20   am
    35    20    21    1
    36    20    41    1
    37    21    27   ar
    38    21    22   ar
    39    22    23   ar
    40    22    42    1
    41    23    24   ar
    42    23    43    1
    43    24    25    1
    44    24    26   ar
    45    26    27   ar
    46    26    44    1
    47    28    29    1
    48    28    45    1
    49    28    46    1
    50    29    47    1
    51    29    48    1
@<TRIPOS>SUBSTRUCTURE
     1 ZINC000047262406        1 TEMP              0 ****  ****    0 ROOT


##########                                Name:    ZINC001362587626
##########                DOCK_Rotatable_Bonds:                   9
##########                         Heavy_Atoms:                  25
##########                    Molecular_Weight:             346.346
##########                DOCK_Rotatable_Bonds:                   9
##########                       Formal_Charge:        -4.02331e-07
##########                     HBond_Acceptors:                  10
##########                        HBond_Donors:                   2
##########                         Heavy_Atoms:                  25
##########                          Grid_Score:          -31.759106
##########                     Grid_vdw_energy:          -31.038313
##########                      Grid_es_energy:           -0.720793
##########           Internal_energy_repulsive:            6.373114

@<TRIPOS>MOLECULE
ZINC001362587626
 43 45 1 0 0
SMALL
USER_CHARGES


@<TRIPOS>ATOM
      1 C1         -4.2037    5.1999   52.6116 C.3     1  ZINC001362587626   -0.1600
      2 C2         -4.0185    3.6812   52.5960 C.3     1  ZINC001362587626    0.1300
      3 H3         -4.9667    3.2022   52.3520 H       1  ZINC001362587626    0.1200
      4 N4         -3.5689    3.2305   53.9154 N.am    1  ZINC001362587626   -0.7100
      5 C5         -4.4558    2.7158   54.7900 C.2     1  ZINC001362587626    0.5100
      6 O6         -5.6259    2.6243   54.4841 O.2     1  ZINC001362587626   -0.5000
      7 C7         -3.9936    2.2538   56.1480 C.3     1  ZINC001362587626    0.1000
      8 N8         -5.0868    2.4012   57.1121 N.pl3   1  ZINC001362587626   -0.3100
      9 C9         -5.3535    3.4894   57.8580 C.2     1  ZINC001362587626    0.1600
     10 N10        -6.4090    3.2013   58.5798 N.2     1  ZINC001362587626   -0.3000
     11 N11        -6.7717    1.9990   58.2921 N.2     1  ZINC001362587626   -0.0700
     12 N12        -5.9782    1.5146   57.4014 N.2     1  ZINC001362587626   -0.0700
     13 C13        -2.9879    3.3115   51.5607 C.2     1  ZINC001362587626    0.5100
     14 O14        -1.8090    3.4803   51.7913 O.2     1  ZINC001362587626   -0.5200
     15 N15        -3.3758    2.7932   50.3786 N.am    1  ZINC001362587626   -0.6600
     16 C16        -2.4175    2.4495   49.4161 C.ar    1  ZINC001362587626    0.1000
     17 C17        -1.7132    3.4443   48.7511 C.ar    1  ZINC001362587626   -0.1000
     18 C18        -0.7685    3.1049   47.8029 C.ar    1  ZINC001362587626   -0.1900
     19 C19        -0.5233    1.7704   47.5144 C.ar    1  ZINC001362587626    0.1200
     20 O20         0.4068    1.4368   46.5803 O.3     1  ZINC001362587626   -0.2800
     21 C21         0.1397    1.8252   45.2312 C.3     1  ZINC001362587626    0.0100
     22 C22         0.9330    1.0212   44.1839 C.3     1  ZINC001362587626    0.0200
     23 O23        -0.2069    0.1386   44.1637 O.3     1  ZINC001362587626   -0.3700
     24 C24        -1.1121    1.1599   44.6287 C.3     1  ZINC001362587626    0.0400
     25 C25        -1.2262    0.7759   48.1786 C.ar    1  ZINC001362587626   -0.1300
     26 C26        -2.1675    1.1139   49.1309 C.ar    1  ZINC001362587626   -0.0800
     27 H27        -3.2555    5.6791   52.8556 H       1  ZINC001362587626    0.0700
     28 H28        -4.5382    5.5353   51.6299 H       1  ZINC001362587626    0.0800
     29 H29        -4.9493    5.4674   53.3604 H       1  ZINC001362587626    0.0800
     30 H30        -2.6330    3.3026   54.1596 H       1  ZINC001362587626    0.4100
     31 H31        -3.6958    1.2067   56.0936 H       1  ZINC001362587626    0.1500
     32 H32        -3.1438    2.8572   56.4672 H       1  ZINC001362587626    0.1400
     33 H33        -4.8040    4.4192   57.8617 H       1  ZINC001362587626    0.2400
     34 H34        -4.3184    2.6582   50.1942 H       1  ZINC001362587626    0.4100
     35 H35        -1.9045    4.4834   48.9751 H       1  ZINC001362587626    0.1300
     36 H36        -0.2206    3.8786   47.2855 H       1  ZINC001362587626    0.1400
     37 H37         0.1792    2.9043   45.0829 H       1  ZINC001362587626    0.0900
     38 H38         1.0940    1.5552   43.2474 H       1  ZINC001362587626    0.1000
     39 H39         1.8401    0.5610   44.5757 H       1  ZINC001362587626    0.1000
     40 H40        -1.8270    0.8097   45.3732 H       1  ZINC001362587626    0.1000
     41 H41        -1.5757    1.7361   43.8280 H       1  ZINC001362587626    0.1000
     42 H42        -1.0348   -0.2629   47.9536 H       1  ZINC001362587626    0.1400
     43 H43        -2.7144    0.3395   49.6484 H       1  ZINC001362587626    0.1500
@<TRIPOS>BOND
     1     1     2    1
     2     1    27    1
     3     1    28    1
     4     1    29    1
     5     2     3    1
     6     2     4    1
     7     2    13    1
     8     4     5   am
     9     4    30    1
    10     5     6    2
    11     5     7    1
    12     7     8    1
    13     7    31    1
    14     7    32    1
    15     8    12    1
    16     8     9    1
    17     9    10    2
    18     9    33    1
    19    10    11    1
    20    11    12    2
    21    13    14    2
    22    13    15   am
    23    15    16    1
    24    15    34    1
    25    16    26   ar
    26    16    17   ar
    27    17    18   ar
    28    17    35    1
    29    18    19   ar
    30    18    36    1
    31    19    20    1
    32    19    25   ar
    33    20    21    1
    34    21    24    1
    35    21    22    1
    36    21    37    1
    37    22    23    1
    38    22    38    1
    39    22    39    1
    40    23    24    1
    41    24    40    1
    42    24    41    1
    43    25    26   ar
    44    25    42    1
    45    26    43    1
@<TRIPOS>SUBSTRUCTURE
     1 ZINC001362587626        1 TEMP              0 ****  ****    0 ROOT


##########                                Name:    ZINC000426805817
##########                DOCK_Rotatable_Bonds:                   6
##########                         Heavy_Atoms:                  26
##########                    Molecular_Weight:             412.286
##########                DOCK_Rotatable_Bonds:                   6
##########                       Formal_Charge:          -0.0100001
##########                     HBond_Acceptors:                   5
##########                        HBond_Donors:                   4
##########                         Heavy_Atoms:                  26
##########                          Grid_Score:          -31.717812
##########                     Grid_vdw_energy:          -30.927290
##########                      Grid_es_energy:           -0.790522
##########           Internal_energy_repulsive:            8.361877

@<TRIPOS>MOLECULE
ZINC000426805817
 44 47 1 0 0
SMALL
USER_CHARGES


@<TRIPOS>ATOM
      1 O1         -2.3425    6.7951   48.1729 O.co2   1  ZINC000426805817   -0.6300
      2 C2         -2.5209    6.2686   49.2580 C.2     1  ZINC000426805817    0.5000
      3 O3         -2.9709    6.9203   50.1850 O.co2   1  ZINC000426805817   -0.6800
      4 C4         -2.1912    4.8110   49.4517 C.3     1  ZINC000426805817   -0.0500
      5 H5         -2.9726    4.1987   49.0015 H       1  ZINC000426805817    0.1300
      6 C6         -0.8504    4.4983   48.7843 C.3     1  ZINC000426805817   -0.0500
      7 C7         -1.0944    3.8453   47.4482 C.2     1  ZINC000426805817   -0.1900
      8 C8         -1.3880    4.4689   46.2964 C.2     1  ZINC000426805817    0.0500
      9 N9         -1.5409    3.5500   45.2942 N.pl3   1  ZINC000426805817   -0.5900
     10 C10        -1.3444    2.2797   45.7894 C.ar    1  ZINC000426805817    0.1100
     11 C11        -1.3802    1.0137   45.2151 C.ar    1  ZINC000426805817   -0.1200
     12 C12        -1.1343   -0.0993   45.9888 C.ar    1  ZINC000426805817   -0.0700
     13 C13        -0.8497    0.0278   47.3422 C.ar    1  ZINC000426805817   -0.1100
     14 Br14       -0.5159   -1.5161   48.3818 Br      1  ZINC000426805817   -0.0400
     15 C15        -0.8087    1.2720   47.9312 C.ar    1  ZINC000426805817   -0.0400
     16 C16        -1.0499    2.4098   47.1589 C.ar    1  ZINC000426805817   -0.1000
     17 N17        -2.1040    4.5153   50.8880 N.4     1  ZINC000426805817   -0.4800
     18 H18        -1.5372    3.6924   51.0282 H       1  ZINC000426805817    0.4000
     19 H19        -1.6852    5.2980   51.3677 H       1  ZINC000426805817    0.4200
     20 C20        -3.4519    4.2782   51.4218 C.3     1  ZINC000426805817    0.0400
     21 C21        -3.3898    4.1980   52.9254 C.ar    1  ZINC000426805817   -0.1600
     22 C22        -4.4299    3.6085   53.6362 C.ar    1  ZINC000426805817    0.1100
     23 N23        -5.6195    3.0230   53.2650 N.pl3   1  ZINC000426805817   -0.5900
     24 C24        -6.2927    2.5925   54.3758 C.2     1  ZINC000426805817    0.0600
     25 C25        -5.5829    2.8756   55.4795 C.2     1  ZINC000426805817   -0.2000
     26 C26        -4.3547    3.5418   55.0397 C.ar    1  ZINC000426805817   -0.1100
     27 C27        -3.2435    4.0649   55.7032 C.ar    1  ZINC000426805817   -0.0400
     28 C28        -2.2330    4.6397   54.9849 C.ar    1  ZINC000426805817   -0.1500
     29 C29        -2.2999    4.7032   53.6001 C.ar    1  ZINC000426805817   -0.0700
     30 H30        -0.2918    5.4231   48.6401 H       1  ZINC000426805817    0.1200
     31 H31        -0.2772    3.8229   49.4195 H       1  ZINC000426805817    0.0900
     32 H32        -1.4888    5.5376   46.1783 H       1  ZINC000426805817    0.1700
     33 H33        -1.7557    3.7617   44.3722 H       1  ZINC000426805817    0.4200
     34 H34        -1.6009    0.9031   44.1637 H       1  ZINC000426805817    0.1300
     35 H35        -1.1636   -1.0804   45.5385 H       1  ZINC000426805817    0.1400
     36 H36        -0.5870    1.3674   48.9839 H       1  ZINC000426805817    0.1400
     37 H37        -4.1082    5.0976   51.1285 H       1  ZINC000426805817    0.1500
     38 H38        -3.8407    3.3410   51.0237 H       1  ZINC000426805817    0.1300
     39 H39        -5.9339    2.9300   52.3520 H       1  ZINC000426805817    0.4300
     40 H40        -7.2529    2.0984   54.3660 H       1  ZINC000426805817    0.1800
     41 H41        -5.8643    2.6544   56.4985 H       1  ZINC000426805817    0.1500
     42 H42        -3.1828    4.0157   56.7804 H       1  ZINC000426805817    0.1300
     43 H43        -1.3734    5.0443   55.4988 H       1  ZINC000426805817    0.1300
     44 H44        -1.4933    5.1607   53.0464 H       1  ZINC000426805817    0.1300
@<TRIPOS>BOND
     1     1     2   ar
     2     2     3   ar
     3     2     4    1
     4     4     5    1
     5     4     6    1
     6     4    17    1
     7     6     7    1
     8     6    30    1
     9     6    31    1
    10     7    16    1
    11     7     8    2
    12     8     9    1
    13     8    32    1
    14     9    10    1
    15     9    33    1
    16    10    16   ar
    17    10    11   ar
    18    11    12   ar
    19    11    34    1
    20    12    13   ar
    21    12    35    1
    22    13    14    1
    23    13    15   ar
    24    15    16   ar
    25    15    36    1
    26    17    18    1
    27    17    19    1
    28    17    20    1
    29    20    21    1
    30    20    37    1
    31    20    38    1
    32    21    29   ar
    33    21    22   ar
    34    22    26   ar
    35    22    23    1
    36    23    24    1
    37    23    39    1
    38    24    25    2
    39    24    40    1
    40    25    26    1
    41    25    41    1
    42    26    27   ar
    43    27    28   ar
    44    27    42    1
    45    28    29   ar
    46    28    43    1
    47    29    44    1
@<TRIPOS>SUBSTRUCTURE
     1 ZINC000426805817        1 TEMP              0 ****  ****    0 ROOT


##########                                Name:    ZINC000550217006
##########                DOCK_Rotatable_Bonds:                   7
##########                         Heavy_Atoms:                  27
##########                    Molecular_Weight:             367.404
##########                DOCK_Rotatable_Bonds:                   7
##########                       Formal_Charge:          0.00999951
##########                     HBond_Acceptors:                   7
##########                        HBond_Donors:                   3
##########                         Heavy_Atoms:                  27
##########                          Grid_Score:          -31.708113
##########                     Grid_vdw_energy:          -30.091171
##########                      Grid_es_energy:           -1.616941
##########           Internal_energy_repulsive:            7.247246

@<TRIPOS>MOLECULE
ZINC000550217006
 48 50 1 0 0
SMALL
USER_CHARGES


@<TRIPOS>ATOM
      1 C1         -1.5818    2.6137   56.1298 C.3     1  ZINC000550217006   -0.1500
      2 C2         -2.8724    3.4049   56.3521 C.3     1  ZINC000550217006    0.0500
      3 O3         -3.9897    2.5150   56.3106 O.3     1  ZINC000550217006   -0.3100
      4 C4         -5.2177    3.0738   56.1468 C.ar    1  ZINC000550217006    0.1400
      5 C5         -5.9522    3.4735   57.2535 C.ar    1  ZINC000550217006   -0.2100
      6 C6         -7.2002    4.0418   57.0843 C.ar    1  ZINC000550217006   -0.0800
      7 C7         -7.7172    4.2116   55.8135 C.ar    1  ZINC000550217006   -0.1600
      8 C8         -6.9871    3.8134   54.7086 C.ar    1  ZINC000550217006   -0.0700
      9 C9         -5.7364    3.2505   54.8721 C.ar    1  ZINC000550217006   -0.1200
     10 C10        -4.9411    2.8173   53.6676 C.3     1  ZINC000550217006   -0.0800
     11 C11        -4.5601    4.0459   52.8392 C.3     1  ZINC000550217006    0.1300
     12 N12        -3.8142    3.6222   51.6517 N.am    1  ZINC000550217006   -0.7200
     13 C13        -3.2156    4.5411   50.8684 C.2     1  ZINC000550217006    0.5600
     14 O14        -3.2957    5.7214   51.1464 O.2     1  ZINC000550217006   -0.5300
     15 C15        -2.4602    4.1127   49.6692 C.ar    1  ZINC000550217006   -0.0800
     16 C16        -1.9685    5.0657   48.7741 C.ar    1  ZINC000550217006   -0.1000
     17 C17        -1.2694    4.6640   47.6622 C.ar    1  ZINC000550217006   -0.0500
     18 C18        -1.0401    3.3010   47.4118 C.ar    1  ZINC000550217006   -0.1300
     19 C19        -1.5265    2.3468   48.3048 C.ar    1  ZINC000550217006    0.1800
     20 C20        -2.2338    2.7622   49.4344 C.ar    1  ZINC000550217006   -0.0900
     21 N21        -1.3377    0.9848   48.1431 N.am    1  ZINC000550217006   -0.6600
     22 C22        -1.4212    0.3220   46.9937 C.2     1  ZINC000550217006    0.5100
     23 O23        -1.2779   -0.8823   46.9972 O.2     1  ZINC000550217006   -0.5100
     24 C24        -1.6884    1.0215   45.6891 C.3     1  ZINC000550217006    0.0900
     25 N25        -0.5746    1.9250   45.4007 N.am    1  ZINC000550217006   -0.7100
     26 C26        -0.2878    2.9527   46.1978 C.2     1  ZINC000550217006    0.5600
     27 O27         0.6618    3.6512   45.9008 O.2     1  ZINC000550217006   -0.5200
     28 H28        -1.6195    2.1228   55.1573 H       1  ZINC000550217006    0.0700
     29 H29        -0.7296    3.2924   56.1615 H       1  ZINC000550217006    0.0800
     30 H30        -1.4770    1.8621   56.9123 H       1  ZINC000550217006    0.0700
     31 H31        -2.8348    3.8956   57.3246 H       1  ZINC000550217006    0.0600
     32 H32        -2.9771    4.1564   55.5696 H       1  ZINC000550217006    0.0600
     33 H33        -5.5491    3.3405   58.2466 H       1  ZINC000550217006    0.1300
     34 H34        -7.7725    4.3532   57.9457 H       1  ZINC000550217006    0.1300
     35 H35        -8.6931    4.6556   55.6833 H       1  ZINC000550217006    0.1300
     36 H36        -7.3933    3.9468   53.7168 H       1  ZINC000550217006    0.1300
     37 H37        -4.0364    2.3049   53.9948 H       1  ZINC000550217006    0.0800
     38 H38        -5.5419    2.1410   53.0594 H       1  ZINC000550217006    0.0800
     39 H39        -5.4642    4.5716   52.5320 H       1  ZINC000550217006    0.0700
     40 H40        -3.9396    4.7110   53.4399 H       1  ZINC000550217006    0.0700
     41 H41        -3.7511    2.6801   51.4291 H       1  ZINC000550217006    0.4000
     42 H42        -2.1380    6.1168   48.9559 H       1  ZINC000550217006    0.1400
     43 H43        -0.8921    5.4045   46.9726 H       1  ZINC000550217006    0.1500
     44 H44        -2.6153    2.0270   50.1275 H       1  ZINC000550217006    0.1500
     45 H45        -1.1257    0.4696   48.9372 H       1  ZINC000550217006    0.4200
     46 H46        -1.7769    0.2844   44.8910 H       1  ZINC000550217006    0.1300
     47 H47        -2.6130    1.5938   45.7644 H       1  ZINC000550217006    0.1000
     48 H48        -0.0325    1.7720   44.6111 H       1  ZINC000550217006    0.4200
@<TRIPOS>BOND
     1     1     2    1
     2     1    28    1
     3     1    29    1
     4     1    30    1
     5     2     3    1
     6     2    31    1
     7     2    32    1
     8     3     4    1
     9     4     9   ar
    10     4     5   ar
    11     5     6   ar
    12     5    33    1
    13     6     7   ar
    14     6    34    1
    15     7     8   ar
    16     7    35    1
    17     8     9   ar
    18     8    36    1
    19     9    10    1
    20    10    11    1
    21    10    37    1
    22    10    38    1
    23    11    12    1
    24    11    39    1
    25    11    40    1
    26    12    13   am
    27    12    41    1
    28    13    14    2
    29    13    15    1
    30    15    20   ar
    31    15    16   ar
    32    16    17   ar
    33    16    42    1
    34    17    18   ar
    35    17    43    1
    36    18    26    1
    37    18    19   ar
    38    19    20   ar
    39    19    21    1
    40    20    44    1
    41    21    22   am
    42    21    45    1
    43    22    23    2
    44    22    24    1
    45    24    25    1
    46    24    46    1
    47    24    47    1
    48    25    26   am
    49    25    48    1
    50    26    27    2
@<TRIPOS>SUBSTRUCTURE
     1 ZINC000550217006        1 TEMP              0 ****  ****    0 ROOT


##########                                Name:    ZINC000151991096
##########                DOCK_Rotatable_Bonds:                   8
##########                         Heavy_Atoms:                  27
##########                    Molecular_Weight:             364.444
##########                DOCK_Rotatable_Bonds:                   8
##########                       Formal_Charge:          -0.0200004
##########                     HBond_Acceptors:                   5
##########                        HBond_Donors:                   1
##########                         Heavy_Atoms:                  27
##########                          Grid_Score:          -31.667887
##########                     Grid_vdw_energy:          -30.007767
##########                      Grid_es_energy:           -1.660120
##########           Internal_energy_repulsive:           16.108253

@<TRIPOS>MOLECULE
ZINC000151991096
 51 53 1 0 0
SMALL
USER_CHARGES


@<TRIPOS>ATOM
      1 C1         -6.5807    2.5339   53.5785 C.3     1  ZINC000151991096   -0.1500
      2 C2         -5.5711    3.2461   54.4810 C.3     1  ZINC000151991096   -0.1300
      3 C3         -4.7947    4.2790   53.6618 C.3     1  ZINC000151991096    0.1400
      4 H4         -5.4838    5.0320   53.2792 H       1  ZINC000151991096    0.1000
      5 N5         -4.1284    3.6122   52.5404 N.am    1  ZINC000151991096   -0.7200
      6 C6         -3.7904    4.3163   51.4421 C.2     1  ZINC000151991096    0.5600
      7 O7         -4.0400    5.5047   51.3812 O.2     1  ZINC000151991096   -0.5300
      8 C8         -3.1175    3.6446   50.3130 C.ar    1  ZINC000151991096   -0.1700
      9 C9         -2.3483    4.3876   49.4137 C.ar    1  ZINC000151991096   -0.0500
     10 C10        -1.7218    3.7572   48.3619 C.ar    1  ZINC000151991096   -0.1600
     11 C11        -1.8537    2.3837   48.1942 C.ar    1  ZINC000151991096    0.1600
     12 O12        -1.2344    1.7661   47.1566 O.3     1  ZINC000151991096   -0.3000
     13 C13        -1.5218    2.2555   45.8451 C.3     1  ZINC000151991096    0.0900
     14 C14        -0.5022    1.7187   44.8740 C.ar    1  ZINC000151991096   -0.0500
     15 C15        -0.8109    0.6381   44.0743 C.ar    1  ZINC000151991096   -0.1000
     16 C16         0.1243    0.1439   43.1821 C.ar    1  ZINC000151991096   -0.0900
     17 C17         1.3744    0.7287   43.0857 C.ar    1  ZINC000151991096   -0.1200
     18 C18         1.6966    1.8100   43.8797 C.ar    1  ZINC000151991096   -0.0700
     19 C19         0.7557    2.3177   44.7776 C.ar    1  ZINC000151991096   -0.0200
     20 C20         1.0832    3.4399   45.6047 C.1     1  ZINC000151991096    0.2400
     21 N21         1.3431    4.3301   46.2608 N.1     1  ZINC000151991096   -0.4000
     22 C22        -2.6181    1.6412   49.0866 C.ar    1  ZINC000151991096   -0.2200
     23 C23        -3.2434    2.2633   50.1439 C.ar    1  ZINC000151991096   -0.0100
     24 C24        -3.7467    4.9517   54.5508 C.3     1  ZINC000151991096    0.0700
     25 H25        -3.3578    5.8413   54.0554 H       1  ZINC000151991096    0.1000
     26 C26        -2.5938    3.9662   54.8387 C.3     1  ZINC000151991096   -0.1500
     27 C27        -2.2686    4.2652   56.3276 C.3     1  ZINC000151991096   -0.1600
     28 C28        -3.6780    4.6057   56.8738 C.3     1  ZINC000151991096    0.0500
     29 O29        -4.3341    5.3123   55.8065 O.3     1  ZINC000151991096   -0.3700
     30 H30        -6.0526    2.0321   52.7677 H       1  ZINC000151991096    0.0500
     31 H31        -7.1339    1.7981   54.1621 H       1  ZINC000151991096    0.0500
     32 H32        -7.2749    3.2642   53.1627 H       1  ZINC000151991096    0.0600
     33 H33        -6.0993    3.7480   55.2917 H       1  ZINC000151991096    0.0700
     34 H34        -4.8769    2.5158   54.8967 H       1  ZINC000151991096    0.0700
     35 H35        -3.9304    2.6638   52.5885 H       1  ZINC000151991096    0.4000
     36 H36        -2.2456    5.4548   49.5432 H       1  ZINC000151991096    0.1300
     37 H37        -1.1273    4.3308   47.6661 H       1  ZINC000151991096    0.1400
     38 H38        -2.5171    1.9277   45.5450 H       1  ZINC000151991096    0.0800
     39 H39        -1.4833    3.3448   45.8473 H       1  ZINC000151991096    0.0800
     40 H40        -1.7848    0.1765   44.1450 H       1  ZINC000151991096    0.1400
     41 H41        -0.1228   -0.7024   42.5583 H       1  ZINC000151991096    0.1400
     42 H42         2.0998    0.3374   42.3878 H       1  ZINC000151991096    0.1400
     43 H43         2.6730    2.2653   43.8037 H       1  ZINC000151991096    0.1400
     44 H44        -2.7185    0.5742   48.9526 H       1  ZINC000151991096    0.1300
     45 H45        -3.8369    1.6856   50.8371 H       1  ZINC000151991096    0.1400
     46 H46        -2.9243    2.9351   54.7132 H       1  ZINC000151991096    0.0800
     47 H47        -1.7338    4.1791   54.2035 H       1  ZINC000151991096    0.0900
     48 H48        -1.8567    3.3865   56.8238 H       1  ZINC000151991096    0.0800
     49 H49        -1.5954    5.1176   56.4192 H       1  ZINC000151991096    0.0800
     50 H50        -4.2217    3.6919   57.1137 H       1  ZINC000151991096    0.0600
     51 H51        -3.5987    5.2422   57.7551 H       1  ZINC000151991096    0.0900
@<TRIPOS>BOND
     1     1     2    1
     2     1    30    1
     3     1    31    1
     4     1    32    1
     5     2     3    1
     6     2    33    1
     7     2    34    1
     8     3     4    1
     9     3     5    1
    10     3    24    1
    11     5     6   am
    12     5    35    1
    13     6     7    2
    14     6     8    1
    15     8    23   ar
    16     8     9   ar
    17     9    10   ar
    18     9    36    1
    19    10    11   ar
    20    10    37    1
    21    11    12    1
    22    11    22   ar
    23    12    13    1
    24    13    14    1
    25    13    38    1
    26    13    39    1
    27    14    19   ar
    28    14    15   ar
    29    15    16   ar
    30    15    40    1
    31    16    17   ar
    32    16    41    1
    33    17    18   ar
    34    17    42    1
    35    18    19   ar
    36    18    43    1
    37    19    20    1
    38    20    21    3
    39    22    23   ar
    40    22    44    1
    41    23    45    1
    42    24    25    1
    43    24    29    1
    44    24    26    1
    45    26    27    1
    46    26    46    1
    47    26    47    1
    48    27    28    1
    49    27    48    1
    50    27    49    1
    51    28    29    1
    52    28    50    1
    53    28    51    1
@<TRIPOS>SUBSTRUCTURE
     1 ZINC000151991096        1 TEMP              0 ****  ****    0 ROOT


##########                                Name:    ZINC000032503012
##########                DOCK_Rotatable_Bonds:                   8
##########                         Heavy_Atoms:                  27
##########                    Molecular_Weight:             390.503
##########                DOCK_Rotatable_Bonds:                   8
##########                       Formal_Charge:           0.0099995
##########                     HBond_Acceptors:                   7
##########                        HBond_Donors:                   2
##########                         Heavy_Atoms:                  27
##########                          Grid_Score:          -31.636560
##########                     Grid_vdw_energy:          -31.671864
##########                      Grid_es_energy:            0.035302
##########           Internal_energy_repulsive:           40.145409

@<TRIPOS>MOLECULE
ZINC000032503012
 53 54 1 0 0
SMALL
USER_CHARGES


@<TRIPOS>ATOM
      1 C1         -8.4289    2.6770   54.3356 C.3     1  ZINC000032503012   -0.1200
      2 C2         -7.0600    2.6811   54.9659 C.ar    1  ZINC000032503012   -0.0500
      3 C3         -6.9252    2.4709   56.3256 C.ar    1  ZINC000032503012   -0.1600
      4 C4         -5.6705    2.4741   56.9072 C.ar    1  ZINC000032503012   -0.0700
      5 C5         -4.5486    2.6876   56.1302 C.ar    1  ZINC000032503012   -0.1500
      6 C6         -4.6813    2.8989   54.7653 C.ar    1  ZINC000032503012    0.1300
      7 O7         -3.5789    3.1087   53.9987 O.3     1  ZINC000032503012   -0.2800
      8 C8         -3.7881    3.6704   52.7016 C.3     1  ZINC000032503012    0.0700
      9 H9         -4.5704    3.1133   52.1861 H       1  ZINC000032503012    0.1100
     10 C10        -4.2120    5.1338   52.8418 C.3     1  ZINC000032503012   -0.1800
     11 C11        -2.5094    3.5918   51.9079 C.2     1  ZINC000032503012    0.5200
     12 O12        -1.4390    3.6515   52.4751 O.2     1  ZINC000032503012   -0.4900
     13 N13        -2.5552    3.4550   50.5679 N.am    1  ZINC000032503012   -0.6700
     14 C14        -1.3680    3.3820   49.8310 C.ar    1  ZINC000032503012    0.1300
     15 C15        -0.6103    4.5258   49.6174 C.ar    1  ZINC000032503012   -0.0600
     16 C16         0.5612    4.4504   48.8895 C.ar    1  ZINC000032503012   -0.1200
     17 C17         0.9793    3.2379   48.3732 C.ar    1  ZINC000032503012   -0.0300
     18 C18         0.2266    2.0969   48.5838 C.ar    1  ZINC000032503012   -0.6600
     19 S19         0.7638    0.5539   47.9237 S.o2    1  ZINC000032503012    2.7000
     20 O20         1.9720    0.8161   47.2231 O.2     1  ZINC000032503012   -0.9600
     21 O21         0.6678   -0.3902   48.9814 O.2     1  ZINC000032503012   -0.9500
     22 N22        -0.3471    0.0947   46.7847 N.am    1  ZINC000032503012   -1.1100
     23 C23        -0.5994    0.9488   45.6215 C.3     1  ZINC000032503012    0.1700
     24 C24         0.7192    1.5567   45.1393 C.3     1  ZINC000032503012   -0.1900
     25 C25        -1.2162    0.1123   44.4988 C.3     1  ZINC000032503012   -0.1500
     26 C26        -1.5651    2.0696   46.0119 C.3     1  ZINC000032503012   -0.1800
     27 C27        -0.9421    2.1642   49.3163 C.ar    1  ZINC000032503012   -0.0400
     28 C28        -5.9404    2.8895   54.1836 C.ar    1  ZINC000032503012   -0.2100
     29 H29        -8.6822    1.6638   54.0237 H       1  ZINC000032503012    0.0700
     30 H30        -9.1635    3.0286   55.0600 H       1  ZINC000032503012    0.0700
     31 H31        -8.4309    3.3356   53.4671 H       1  ZINC000032503012    0.0700
     32 H32        -7.8012    2.3043   56.9348 H       1  ZINC000032503012    0.1300
     33 H33        -5.5678    2.3100   57.9696 H       1  ZINC000032503012    0.1300
     34 H34        -3.5690    2.6904   56.5848 H       1  ZINC000032503012    0.1300
     35 H35        -5.1369    5.1907   53.4158 H       1  ZINC000032503012    0.0800
     36 H36        -3.4296    5.6909   53.3572 H       1  ZINC000032503012    0.0800
     37 H37        -4.3716    5.5623   51.8524 H       1  ZINC000032503012    0.0800
     38 H38        -3.4114    3.4073   50.1142 H       1  ZINC000032503012    0.4100
     39 H39        -0.9367    5.4734   50.0198 H       1  ZINC000032503012    0.1400
     40 H40         1.1510    5.3397   48.7231 H       1  ZINC000032503012    0.1400
     41 H41         1.8955    3.1817   47.8041 H       1  ZINC000032503012    0.1500
     42 H42        -0.8306   -0.7399   46.8876 H       1  ZINC000032503012    0.4200
     43 H43         1.4645    0.7686   45.0314 H       1  ZINC000032503012    0.0700
     44 H44         0.5640    2.0443   44.1769 H       1  ZINC000032503012    0.0800
     45 H45         1.0685    2.2901   45.8662 H       1  ZINC000032503012    0.0700
     46 H46        -2.1556   -0.3207   44.8422 H       1  ZINC000032503012    0.0700
     47 H47        -1.4041    0.7478   43.6334 H       1  ZINC000032503012    0.0700
     48 H48        -0.5282   -0.6861   44.2207 H       1  ZINC000032503012    0.0600
     49 H49        -1.0544    2.7788   46.6634 H       1  ZINC000032503012    0.0900
     50 H50        -1.9078    2.5833   45.1135 H       1  ZINC000032503012    0.0700
     51 H51        -2.4211    1.6454   46.5367 H       1  ZINC000032503012    0.0600
     52 H52        -1.5295    1.2729   49.4803 H       1  ZINC000032503012    0.1400
     53 H53        -6.0463    3.0538   53.1213 H       1  ZINC000032503012    0.1300
@<TRIPOS>BOND
     1     1     2    1
     2     1    29    1
     3     1    30    1
     4     1    31    1
     5     2    28   ar
     6     2     3   ar
     7     3     4   ar
     8     3    32    1
     9     4     5   ar
    10     4    33    1
    11     5     6   ar
    12     5    34    1
    13     6     7    1
    14     6    28   ar
    15     7     8    1
    16     8     9    1
    17     8    10    1
    18     8    11    1
    19    10    35    1
    20    10    36    1
    21    10    37    1
    22    11    12    2
    23    11    13   am
    24    13    14    1
    25    13    38    1
    26    14    27   ar
    27    14    15   ar
    28    15    16   ar
    29    15    39    1
    30    16    17   ar
    31    16    40    1
    32    17    18   ar
    33    17    41    1
    34    18    19    1
    35    18    27   ar
    36    19    20    2
    37    19    21    2
    38    19    22   am
    39    22    23    1
    40    22    42    1
    41    23    24    1
    42    23    25    1
    43    23    26    1
    44    24    43    1
    45    24    44    1
    46    24    45    1
    47    25    46    1
    48    25    47    1
    49    25    48    1
    50    26    49    1
    51    26    50    1
    52    26    51    1
    53    27    52    1
    54    28    53    1
@<TRIPOS>SUBSTRUCTURE
     1 ZINC000032503012        1 TEMP              0 ****  ****    0 ROOT


##########                                Name:    ZINC000471198073
##########                DOCK_Rotatable_Bonds:                  12
##########                         Heavy_Atoms:                  30
##########                    Molecular_Weight:             409.528
##########                DOCK_Rotatable_Bonds:                  12
##########                       Formal_Charge:          -0.0399998
##########                     HBond_Acceptors:                   6
##########                        HBond_Donors:                   3
##########                         Heavy_Atoms:                  30
##########                          Grid_Score:          -31.630636
##########                     Grid_vdw_energy:          -30.637211
##########                      Grid_es_energy:           -0.993425
##########           Internal_energy_repulsive:           26.427448

@<TRIPOS>MOLECULE
ZINC000471198073
 61 62 1 0 0
SMALL
USER_CHARGES


@<TRIPOS>ATOM
      1 C1         -0.6276    1.7495   45.0428 C.3     1  ZINC000471198073   -0.1400
      2 C2         -1.4626    1.0115   46.0912 C.3     1  ZINC000471198073   -0.1100
      3 C3         -0.9707   -0.4323   46.2110 C.3     1  ZINC000471198073   -0.1500
      4 C4         -1.3215    1.7024   47.4230 C.2     1  ZINC000471198073    0.5200
      5 O5         -0.6843    1.1797   48.3128 O.2     1  ZINC000471198073   -0.5200
      6 N6         -1.9033    2.9011   47.6254 N.am    1  ZINC000471198073   -0.6700
      7 C7         -1.7722    3.5426   48.8620 C.ar    1  ZINC000471198073    0.1600
      8 C8         -0.9297    4.6395   48.9905 C.ar    1  ZINC000471198073   -0.1500
      9 C9         -0.7998    5.2740   50.2112 C.ar    1  ZINC000471198073   -0.0800
     10 C10        -1.5068    4.8202   51.3075 C.ar    1  ZINC000471198073   -0.1300
     11 C11        -2.3512    3.7228   51.1860 C.ar    1  ZINC000471198073    0.1500
     12 N12        -3.0659    3.2637   52.2955 N.am    1  ZINC000471198073   -0.6400
     13 C13        -4.0114    4.0427   52.8573 C.2     1  ZINC000471198073    0.5100
     14 O14        -4.2421    5.1429   52.3996 O.2     1  ZINC000471198073   -0.5000
     15 C15        -4.7753    3.5521   54.0432 C.2     1  ZINC000471198073    0.5100
     16 O16        -4.3863    2.5792   54.6556 O.2     1  ZINC000471198073   -0.5100
     17 N17        -5.8968    4.1898   54.4333 N.am    1  ZINC000471198073   -0.7000
     18 C18        -6.6471    3.7075   55.5955 C.3     1  ZINC000471198073    0.1200
     19 C19        -7.7301    2.7305   55.1339 C.3     1  ZINC000471198073   -0.0900
     20 H20        -7.2959    1.7383   55.0107 H       1  ZINC000471198073    0.0800
     21 C21        -8.8449    2.6731   56.1803 C.3     1  ZINC000471198073   -0.0800
     22 C22        -8.3490    1.9451   57.4030 C.ar    1  ZINC000471198073   -0.0800
     23 C23        -7.7852    2.6533   58.4478 C.ar    1  ZINC000471198073   -0.1200
     24 C24        -7.3302    1.9856   59.5694 C.ar    1  ZINC000471198073   -0.1200
     25 C25        -7.4394    0.6097   59.6464 C.ar    1  ZINC000471198073   -0.1200
     26 C26        -8.0040   -0.0984   58.6021 C.ar    1  ZINC000471198073   -0.1200
     27 C27        -8.4630    0.5697   57.4824 C.ar    1  ZINC000471198073   -0.1200
     28 C28        -8.3080    3.2034   53.7985 C.3     1  ZINC000471198073   -0.1000
     29 C29        -9.1712    2.0938   53.1948 C.3     1  ZINC000471198073   -0.1600
     30 C30        -9.1657    4.4497   54.0266 C.3     1  ZINC000471198073   -0.1700
     31 C31        -2.4880    3.0871   49.9599 C.ar    1  ZINC000471198073   -0.1400
     32 H32        -0.7297    1.2498   44.0795 H       1  ZINC000471198073    0.0700
     33 H33        -0.9781    2.7781   44.9574 H       1  ZINC000471198073    0.0600
     34 H34         0.4197    1.7463   45.3446 H       1  ZINC000471198073    0.0600
     35 H35        -2.5100    1.0147   45.7894 H       1  ZINC000471198073    0.1000
     36 H36         0.0767   -0.4355   46.5127 H       1  ZINC000471198073    0.0600
     37 H37        -1.5656   -0.9581   46.9578 H       1  ZINC000471198073    0.0600
     38 H38        -1.0728   -0.9320   45.2476 H       1  ZINC000471198073    0.0700
     39 H39        -2.4129    3.3191   46.9138 H       1  ZINC000471198073    0.4100
     40 H40        -0.3751    4.9967   48.1353 H       1  ZINC000471198073    0.1300
     41 H41        -0.1438    6.1264   50.3084 H       1  ZINC000471198073    0.1300
     42 H42        -1.4031    5.3181   52.2603 H       1  ZINC000471198073    0.1400
     43 H43        -2.8815    2.3844   52.6613 H       1  ZINC000471198073    0.4200
     44 H44        -6.2071    4.9681   53.9446 H       1  ZINC000471198073    0.4200
     45 H45        -5.9683    3.2001   56.2811 H       1  ZINC000471198073    0.0700
     46 H46        -7.1123    4.5521   56.1036 H       1  ZINC000471198073    0.0800
     47 H47        -9.1382    3.6864   56.4546 H       1  ZINC000471198073    0.0800
     48 H48        -9.7044    2.1454   55.7668 H       1  ZINC000471198073    0.0800
     49 H49        -7.6997    3.7282   58.3875 H       1  ZINC000471198073    0.1200
     50 H50        -6.8889    2.5388   60.3853 H       1  ZINC000471198073    0.1200
     51 H51        -7.0833    0.0879   60.5224 H       1  ZINC000471198073    0.1200
     52 H52        -8.0891   -1.1733   58.6622 H       1  ZINC000471198073    0.1200
     53 H53        -8.9041    0.0166   56.6664 H       1  ZINC000471198073    0.1200
     54 H54        -7.4936    3.4430   53.1147 H       1  ZINC000471198073    0.0800
     55 H55       -10.0396    1.9223   53.8307 H       1  ZINC000471198073    0.0600
     56 H56        -9.5024    2.3919   52.2000 H       1  ZINC000471198073    0.0600
     57 H57        -8.5864    1.1768   53.1233 H       1  ZINC000471198073    0.0600
     58 H58        -8.5861    5.1949   54.5715 H       1  ZINC000471198073    0.0600
     59 H59        -9.4728    4.8604   53.0648 H       1  ZINC000471198073    0.0600
     60 H60       -10.0491    4.1817   54.6061 H       1  ZINC000471198073    0.0700
     61 H61        -3.1435    2.2342   49.8627 H       1  ZINC000471198073    0.1400
@<TRIPOS>BOND
     1     1     2    1
     2     1    32    1
     3     1    33    1
     4     1    34    1
     5     2     3    1
     6     2     4    1
     7     2    35    1
     8     3    36    1
     9     3    37    1
    10     3    38    1
    11     4     5    2
    12     4     6   am
    13     6     7    1
    14     6    39    1
    15     7    31   ar
    16     7     8   ar
    17     8     9   ar
    18     8    40    1
    19     9    10   ar
    20     9    41    1
    21    10    11   ar
    22    10    42    1
    23    11    12    1
    24    11    31   ar
    25    12    13   am
    26    12    43    1
    27    13    14    2
    28    13    15    1
    29    15    16    2
    30    15    17   am
    31    17    18    1
    32    17    44    1
    33    18    19    1
    34    18    45    1
    35    18    46    1
    36    19    20    1
    37    19    21    1
    38    19    28    1
    39    21    22    1
    40    21    47    1
    41    21    48    1
    42    22    27   ar
    43    22    23   ar
    44    23    24   ar
    45    23    49    1
    46    24    25   ar
    47    24    50    1
    48    25    26   ar
    49    25    51    1
    50    26    27   ar
    51    26    52    1
    52    27    53    1
    53    28    29    1
    54    28    30    1
    55    28    54    1
    56    29    55    1
    57    29    56    1
    58    29    57    1
    59    30    58    1
    60    30    59    1
    61    30    60    1
    62    31    61    1
@<TRIPOS>SUBSTRUCTURE
     1 ZINC000471198073        1 TEMP              0 ****  ****    0 ROOT


##########                                Name:    ZINC000464867530
##########                DOCK_Rotatable_Bonds:                   8
##########                         Heavy_Atoms:                  30
##########                    Molecular_Weight:              422.49
##########                DOCK_Rotatable_Bonds:                   8
##########                       Formal_Charge:         -0.00999994
##########                     HBond_Acceptors:                   7
##########                        HBond_Donors:                   0
##########                         Heavy_Atoms:                  30
##########                          Grid_Score:          -31.627430
##########                     Grid_vdw_energy:          -31.529829
##########                      Grid_es_energy:           -0.097601
##########           Internal_energy_repulsive:           35.568825

@<TRIPOS>MOLECULE
ZINC000464867530
 59 62 1 0 0
SMALL
USER_CHARGES


@<TRIPOS>ATOM
      1 C1         -2.5090    2.1220   55.8504 C.3     1  ZINC000464867530   -0.1500
      2 C2         -3.2761    2.9965   54.8565 C.3     1  ZINC000464867530   -0.1400
      3 C3         -2.3923    4.1663   54.4187 C.3     1  ZINC000464867530    0.0900
      4 N4         -1.6668    3.8005   53.1996 N.am    1  ZINC000464867530   -0.6100
      5 C5         -0.2585    3.4043   53.2764 C.3     1  ZINC000464867530    0.0700
      6 C6          0.5027    4.3949   54.1598 C.3     1  ZINC000464867530    0.4300
      7 F7          1.8020    4.5564   53.6668 F       1  ZINC000464867530   -0.1700
      8 F8         -0.1561    5.6290   54.1511 F       1  ZINC000464867530   -0.1800
      9 F9          0.5581    3.9050   55.4690 F       1  ZINC000464867530   -0.1800
     10 C10        -2.2950    3.8285   52.0076 C.2     1  ZINC000464867530    0.5300
     11 O11        -3.4610    4.1565   51.9442 O.2     1  ZINC000464867530   -0.5100
     12 C12        -1.5489    3.4522   50.7535 C.3     1  ZINC000464867530   -0.1200
     13 H13        -0.8743    2.6229   50.9665 H       1  ZINC000464867530    0.1000
     14 C14        -0.7405    4.6543   50.2600 C.3     1  ZINC000464867530   -0.1200
     15 C15         0.0433    4.2635   49.0050 C.3     1  ZINC000464867530   -0.1300
     16 C16        -0.9377    3.8547   47.9017 C.3     1  ZINC000464867530    0.1000
     17 N17        -1.8162    2.7964   48.4184 N.am    1  ZINC000464867530   -0.6100
     18 C18        -1.9482    1.6297   47.7568 C.2     1  ZINC000464867530    0.5500
     19 O19        -2.6777    0.7645   48.1928 O.2     1  ZINC000464867530   -0.5300
     20 C20        -1.1895    1.4002   46.4751 C.3     1  ZINC000464867530   -0.1700
     21 H21        -1.2396    2.2102   45.7474 H       1  ZINC000464867530    0.1300
     22 C22        -1.1275   -0.0318   45.9364 C.3     1  ZINC000464867530   -0.1300
     23 C23         0.1097    0.6077   46.5582 C.3     1  ZINC000464867530   -0.0600
     24 C24         0.6619    0.1253   47.9099 C.3     1  ZINC000464867530   -0.0900
     25 C25         2.0181    0.8605   47.9901 C.3     1  ZINC000464867530   -0.0800
     26 C26         2.4164    1.1185   46.5522 C.ar    1  ZINC000464867530   -0.0900
     27 C27         3.6444    1.4533   46.0082 C.ar    1  ZINC000464867530   -0.1100
     28 C28         3.7737    1.6446   44.6462 C.ar    1  ZINC000464867530   -0.1100
     29 C29         2.6731    1.5015   43.8225 C.ar    1  ZINC000464867530   -0.1200
     30 C30         1.4465    1.1672   44.3628 C.ar    1  ZINC000464867530   -0.1000
     31 C31         1.3139    0.9745   45.7274 C.ar    1  ZINC000464867530   -0.0700
     32 C32        -2.5479    3.0334   49.6703 C.3     1  ZINC000464867530    0.1300
     33 H33        -1.6066    1.7377   55.3751 H       1  ZINC000464867530    0.0600
     34 H34        -2.2356    2.7168   56.7219 H       1  ZINC000464867530    0.0600
     35 H35        -3.1386    1.2887   56.1623 H       1  ZINC000464867530    0.0600
     36 H36        -3.5495    2.4018   53.9850 H       1  ZINC000464867530    0.0700
     37 H37        -4.1785    3.3809   55.3318 H       1  ZINC000464867530    0.0700
     38 H38        -3.0154    5.0389   54.2227 H       1  ZINC000464867530    0.0900
     39 H39        -1.6795    4.3991   55.2097 H       1  ZINC000464867530    0.0900
     40 H40        -0.1851    2.4047   53.7048 H       1  ZINC000464867530    0.1300
     41 H41         0.1738    3.4033   52.2758 H       1  ZINC000464867530    0.1200
     42 H42        -1.4177    5.4753   50.0242 H       1  ZINC000464867530    0.0800
     43 H43        -0.0458    4.9692   51.0387 H       1  ZINC000464867530    0.0800
     44 H44         0.6369    5.1132   48.6675 H       1  ZINC000464867530    0.0900
     45 H45         0.7028    3.4264   49.2339 H       1  ZINC000464867530    0.0700
     46 H46        -1.5372    4.7164   47.6081 H       1  ZINC000464867530    0.0700
     47 H47        -0.3839    3.4817   47.0402 H       1  ZINC000464867530    0.0900
     48 H48        -1.6355   -0.8077   46.5091 H       1  ZINC000464867530    0.1100
     49 H49        -1.1361   -0.1637   44.8545 H       1  ZINC000464867530    0.1100
     50 H50         0.0072    0.4285   48.7270 H       1  ZINC000464867530    0.0700
     51 H51         0.8058   -0.9552   47.9070 H       1  ZINC000464867530    0.0800
     52 H52         1.9062    1.8029   48.5262 H       1  ZINC000464867530    0.0800
     53 H53         2.7607    0.2314   48.4809 H       1  ZINC000464867530    0.0800
     54 H54         4.5048    1.5657   46.6511 H       1  ZINC000464867530    0.1200
     55 H55         4.7335    1.9060   44.2256 H       1  ZINC000464867530    0.1300
     56 H56         2.7719    1.6512   42.7575 H       1  ZINC000464867530    0.1300
     57 H57         0.5872    1.0562   43.7180 H       1  ZINC000464867530    0.1200
     58 H58        -3.0565    2.1188   49.9751 H       1  ZINC000464867530    0.1000
     59 H59        -3.2789    3.8282   49.5215 H       1  ZINC000464867530    0.0800
@<TRIPOS>BOND
     1     1     2    1
     2     1    33    1
     3     1    34    1
     4     1    35    1
     5     2     3    1
     6     2    36    1
     7     2    37    1
     8     3     4    1
     9     3    38    1
    10     3    39    1
    11     4     5    1
    12     4    10   am
    13     5     6    1
    14     5    40    1
    15     5    41    1
    16     6     7    1
    17     6     8    1
    18     6     9    1
    19    10    11    2
    20    10    12    1
    21    12    13    1
    22    12    32    1
    23    12    14    1
    24    14    15    1
    25    14    42    1
    26    14    43    1
    27    15    16    1
    28    15    44    1
    29    15    45    1
    30    16    17    1
    31    16    46    1
    32    16    47    1
    33    17    18   am
    34    17    32    1
    35    18    19    2
    36    18    20    1
    37    20    21    1
    38    20    23    1
    39    20    22    1
    40    22    23    1
    41    22    48    1
    42    22    49    1
    43    23    31    1
    44    23    24    1
    45    24    25    1
    46    24    50    1
    47    24    51    1
    48    25    26    1
    49    25    52    1
    50    25    53    1
    51    26    31   ar
    52    26    27   ar
    53    27    28   ar
    54    27    54    1
    55    28    29   ar
    56    28    55    1
    57    29    30   ar
    58    29    56    1
    59    30    31   ar
    60    30    57    1
    61    32    58    1
    62    32    59    1
@<TRIPOS>SUBSTRUCTURE
     1 ZINC000464867530        1 TEMP              0 ****  ****    0 ROOT


##########                                Name:    ZINC000006915700
##########                DOCK_Rotatable_Bonds:                   5
##########                         Heavy_Atoms:                  26
##########                    Molecular_Weight:             369.447
##########                DOCK_Rotatable_Bonds:                   5
##########                       Formal_Charge:        -1.04308e-07
##########                     HBond_Acceptors:                   8
##########                        HBond_Donors:                   1
##########                         Heavy_Atoms:                  26
##########                          Grid_Score:          -31.623646
##########                     Grid_vdw_energy:          -29.235161
##########                      Grid_es_energy:           -2.388485
##########           Internal_energy_repulsive:            8.312755

@<TRIPOS>MOLECULE
ZINC000006915700
 45 48 1 0 0
SMALL
USER_CHARGES


@<TRIPOS>ATOM
      1 C1         -8.8607    0.5159   52.7600 C.3     1  <0>        -0.1200
      2 C2         -9.4462    0.0956   54.0835 C.ar    1  <0>        -0.0500
      3 C3        -10.1843   -1.0714   54.1707 C.ar    1  <0>        -0.1300
      4 C4        -10.7226   -1.4617   55.3798 C.ar    1  <0>        -0.0600
      5 C5        -10.5214   -0.6769   56.5154 C.ar    1  <0>        -0.0700
      6 C6        -11.0961   -1.0904   57.8162 C.2     1  <0>         0.4400
      7 N7        -12.4092   -1.2400   57.9306 N.2     1  <0>        -0.5200
      8 C8        -12.9421   -1.6132   59.0980 C.2     1  <0>         0.3600
      9 C9        -14.2461   -1.8471   59.5153 C.2     1  <0>        -0.3200
     10 C10       -14.2019   -2.2185   60.8601 C.2     1  <0>         0.5500
     11 O11       -15.1651   -2.4996   61.5545 O.2     1  <0>        -0.5200
     12 N12       -12.9158   -2.2146   61.2616 N.am    1  <0>        -0.5000
     13 N13       -12.1147   -1.8401   60.1784 N.pl3   1  <0>        -0.3300
     14 C14       -10.7677   -1.6776   60.0283 C.2     1  <0>         0.3900
     15 S15        -9.6822   -1.9592   61.3875 S.3     1  <0>         0.1200
     16 C16        -8.0846   -1.7613   60.5599 C.3     1  <0>        -0.1500
     17 C17        -7.7434   -0.2961   60.4705 C.2     1  <0>         0.5500
     18 O18        -7.5936    0.2266   59.3864 O.2     1  <0>        -0.5200
     19 N19        -7.6047    0.4332   61.5953 N.am    1  <0>        -0.6100
     20 C20        -7.2796    1.8659   61.6530 C.3     1  <0>         0.0900
     21 C21        -7.1996    2.2579   63.1435 C.3     1  <0>        -0.1300
     22 C22        -6.9262    0.9016   63.8454 C.3     1  <0>        -0.1400
     23 C23        -7.7599   -0.0720   62.9716 C.3     1  <0>         0.1000
     24 N24       -10.2831   -1.3116   58.8519 N.2     1  <0>        -0.5600
     25 C25        -9.7763    0.4985   56.4208 C.ar    1  <0>        -0.0500
     26 C26        -9.2387    0.8755   55.2073 C.ar    1  <0>        -0.1300
     27 H27        -7.8645    0.0871   52.6509 H       1  <0>         0.0800
     28 H28        -9.4994    0.1612   51.9510 H       1  <0>         0.0700
     29 H29        -8.7946    1.6032   52.7208 H       1  <0>         0.0700
     30 H30       -10.3396   -1.6778   53.2908 H       1  <0>         0.1300
     31 H31       -11.2988   -2.3726   55.4466 H       1  <0>         0.1300
     32 H32       -15.1348   -1.7575   58.9083 H       1  <0>         0.1800
     33 H33       -12.5990   -2.4347   62.1517 H       1  <0>         0.4400
     34 H34        -7.3136   -2.2798   61.1298 H       1  <0>         0.1400
     35 H35        -8.1405   -2.1832   59.5565 H       1  <0>         0.1400
     36 H36        -6.3198    2.0481   61.1698 H       1  <0>         0.0800
     37 H37        -8.0611    2.4435   61.1592 H       1  <0>         0.0800
     38 H38        -6.3784    2.9537   63.3156 H       1  <0>         0.0900
     39 H39        -8.1444    2.6836   63.4815 H       1  <0>         0.0800
     40 H40        -5.8658    0.6512   63.8122 H       1  <0>         0.0800
     41 H41        -7.2914    0.9124   64.8723 H       1  <0>         0.0900
     42 H42        -8.8071   -0.0505   63.2733 H       1  <0>         0.0800
     43 H43        -7.3631   -1.0843   63.0474 H       1  <0>         0.0800
     44 H44        -9.6172    1.1103   57.2966 H       1  <0>         0.1400
     45 H45        -8.6615    1.7851   55.1329 H       1  <0>         0.1300
@<TRIPOS>BOND
     1     1     2    1
     2     1    27    1
     3     1    28    1
     4     1    29    1
     5     2    26   ar
     6     2     3   ar
     7     3     4   ar
     8     3    30    1
     9     4     5   ar
    10     4    31    1
    11     5     6    1
    12     5    25   ar
    13     6    24    1
    14     6     7    2
    15     7     8    1
    16     8    13    1
    17     8     9    2
    18     9    10    1
    19     9    32    1
    20    10    11    2
    21    10    12   am
    22    12    13    1
    23    12    33    1
    24    13    14    1
    25    14    15    1
    26    14    24    2
    27    15    16    1
    28    16    17    1
    29    16    34    1
    30    16    35    1
    31    17    18    2
    32    17    19   am
    33    19    23    1
    34    19    20    1
    35    20    21    1
    36    20    36    1
    37    20    37    1
    38    21    22    1
    39    21    38    1
    40    21    39    1
    41    22    23    1
    42    22    40    1
    43    22    41    1
    44    23    42    1
    45    23    43    1
    46    25    26   ar
    47    25    44    1
    48    26    45    1
@<TRIPOS>SUBSTRUCTURE
     1 <0>         1 TEMP              0 ****  ****    0 ROOT


##########                                Name:    ZINC000132775118
##########                DOCK_Rotatable_Bonds:                   5
##########                         Heavy_Atoms:                  27
##########                    Molecular_Weight:             376.499
##########                DOCK_Rotatable_Bonds:                   5
##########                       Formal_Charge:        -4.76837e-07
##########                     HBond_Acceptors:                   7
##########                        HBond_Donors:                   1
##########                         Heavy_Atoms:                  27
##########                          Grid_Score:          -31.622091
##########                     Grid_vdw_energy:          -29.847612
##########                      Grid_es_energy:           -1.774478
##########           Internal_energy_repulsive:           20.950769

@<TRIPOS>MOLECULE
ZINC000132775118
 59 62 1 0 0
SMALL
USER_CHARGES


@<TRIPOS>ATOM
      1 O1        -10.0003   -2.6179   60.7189 O.2     1  ZINC000132775118   -0.5200
      2 C2        -10.3703   -1.4940   60.9849 C.2     1  ZINC000132775118    0.5200
      3 C3        -11.8138   -1.1091   60.7868 C.3     1  ZINC000132775118    0.0300
      4 N4        -12.5247   -2.2045   60.1140 N.3     1  ZINC000132775118   -0.5100
      5 C5        -13.8469   -2.4242   60.7184 C.3     1  ZINC000132775118    0.0300
      6 C6        -14.6513   -3.3892   59.8961 C.2     1  ZINC000132775118    0.5300
      7 O7        -15.6351   -3.8926   60.3959 O.2     1  ZINC000132775118   -0.5500
      8 N8        -14.3355   -3.7208   58.6369 N.am    1  ZINC000132775118   -0.7200
      9 C9        -13.1351   -3.2158   57.9848 C.3     1  ZINC000132775118    0.1500
     10 H10       -12.3480   -3.9659   58.0623 H       1  ZINC000132775118    0.0800
     11 C11       -13.3835   -2.9086   56.5098 C.3     1  ZINC000132775118   -0.1300
     12 C12       -12.0699   -2.4440   55.8726 C.3     1  ZINC000132775118   -0.1200
     13 C13       -11.5548   -1.1954   56.5890 C.3     1  ZINC000132775118   -0.1200
     14 C14       -11.3350   -1.4973   58.0748 C.3     1  ZINC000132775118   -0.1200
     15 C15       -12.6699   -1.9342   58.6792 C.3     1  ZINC000132775118    0.0700
     16 H16       -13.4059   -1.1421   58.5414 H       1  ZINC000132775118    0.0600
     17 N17        -9.4916   -0.5909   61.4631 N.am    1  ZINC000132775118   -0.6200
     18 C18        -9.9272    0.7710   61.8014 C.3     1  ZINC000132775118    0.1100
     19 C19        -9.5071    1.0795   63.2420 C.3     1  ZINC000132775118   -0.1200
     20 C20        -8.0021    0.8456   63.3914 C.3     1  ZINC000132775118   -0.1000
     21 C21        -7.5792    1.1808   64.7985 C.2     1  ZINC000132775118    0.5300
     22 O22        -8.3508    1.0149   65.7193 O.2     1  ZINC000132775118   -0.5300
     23 N23        -6.3435    1.6647   65.0335 N.am    1  ZINC000132775118   -0.6200
     24 C24        -5.3149    1.9195   64.0142 C.3     1  ZINC000132775118    0.1000
     25 C25        -4.0622    2.4424   64.7482 C.3     1  ZINC000132775118   -0.1300
     26 C26        -4.2627    1.9181   66.1947 C.3     1  ZINC000132775118   -0.1300
     27 C27        -5.8015    2.0326   66.3542 C.3     1  ZINC000132775118    0.1000
     28 C28        -7.6805   -0.6216   63.0981 C.3     1  ZINC000132775118   -0.1200
     29 C29        -8.0811   -0.9512   61.6617 C.3     1  ZINC000132775118    0.1200
     30 H30       -12.2750   -0.9175   61.7556 H       1  ZINC000132775118    0.0700
     31 H31       -11.8690   -0.2095   60.1737 H       1  ZINC000132775118    0.1200
     32 H32       -13.7201   -2.8273   61.7232 H       1  ZINC000132775118    0.1300
     33 H33       -14.3771   -1.4737   60.7777 H       1  ZINC000132775118    0.0700
     34 H34       -14.9236   -4.3152   58.1450 H       1  ZINC000132775118    0.4000
     35 H35       -13.7368   -3.8072   56.0041 H       1  ZINC000132775118    0.0800
     36 H36       -14.1309   -2.1202   56.4219 H       1  ZINC000132775118    0.0700
     37 H37       -11.3281   -3.2387   55.9521 H       1  ZINC000132775118    0.0700
     38 H38       -12.2396   -2.2135   54.8208 H       1  ZINC000132775118    0.0700
     39 H39       -10.6118   -0.8837   56.1399 H       1  ZINC000132775118    0.0700
     40 H40       -12.2850   -0.3926   56.4870 H       1  ZINC000132775118    0.0600
     41 H41       -10.5973   -2.2928   58.1805 H       1  ZINC000132775118    0.0800
     42 H42       -10.9816   -0.5993   58.5815 H       1  ZINC000132775118    0.0700
     43 H43        -9.4579    1.4837   61.1233 H       1  ZINC000132775118    0.0800
     44 H44       -11.0116    0.8399   61.7143 H       1  ZINC000132775118    0.0900
     45 H45        -9.7385    2.1190   63.4737 H       1  ZINC000132775118    0.0800
     46 H46       -10.0467    0.4248   63.9264 H       1  ZINC000132775118    0.0800
     47 H47        -7.4642    1.4824   62.6891 H       1  ZINC000132775118    0.0900
     48 H48        -5.0775    0.9948   63.4883 H       1  ZINC000132775118    0.0700
     49 H49        -5.6707    2.6694   63.3079 H       1  ZINC000132775118    0.0700
     50 H50        -3.1559    2.0255   64.3091 H       1  ZINC000132775118    0.0800
     51 H51        -4.0333    3.5319   64.7335 H       1  ZINC000132775118    0.0800
     52 H52        -3.9332    0.8829   66.2842 H       1  ZINC000132775118    0.0800
     53 H53        -3.7486    2.5539   66.9155 H       1  ZINC000132775118    0.0900
     54 H54        -6.0810    3.0536   66.6140 H       1  ZINC000132775118    0.0700
     55 H55        -6.1569    1.3362   67.1137 H       1  ZINC000132775118    0.0800
     56 H56        -6.6118   -0.7927   63.2275 H       1  ZINC000132775118    0.0800
     57 H57        -8.2372   -1.2602   63.7840 H       1  ZINC000132775118    0.0800
     58 H58        -7.9459   -2.0174   61.4801 H       1  ZINC000132775118    0.1000
     59 H59        -7.4630   -0.3793   60.9696 H       1  ZINC000132775118    0.0700
@<TRIPOS>BOND
     1     1     2    2
     2     2     3    1
     3     2    17   am
     4     3     4    1
     5     3    30    1
     6     3    31    1
     7     4    15    1
     8     4     5    1
     9     5     6    1
    10     5    32    1
    11     5    33    1
    12     6     7    2
    13     6     8   am
    14     8     9    1
    15     8    34    1
    16     9    10    1
    17     9    15    1
    18     9    11    1
    19    11    12    1
    20    11    35    1
    21    11    36    1
    22    12    13    1
    23    12    37    1
    24    12    38    1
    25    13    14    1
    26    13    39    1
    27    13    40    1
    28    14    15    1
    29    14    41    1
    30    14    42    1
    31    15    16    1
    32    17    29    1
    33    17    18    1
    34    18    19    1
    35    18    43    1
    36    18    44    1
    37    19    20    1
    38    19    45    1
    39    19    46    1
    40    20    21    1
    41    20    28    1
    42    20    47    1
    43    21    22    2
    44    21    23   am
    45    23    27    1
    46    23    24    1
    47    24    25    1
    48    24    48    1
    49    24    49    1
    50    25    26    1
    51    25    50    1
    52    25    51    1
    53    26    27    1
    54    26    52    1
    55    26    53    1
    56    27    54    1
    57    27    55    1
    58    28    29    1
    59    28    56    1
    60    28    57    1
    61    29    58    1
    62    29    59    1
@<TRIPOS>SUBSTRUCTURE
     1 ZINC000132775118        1 TEMP              0 ****  ****    0 ROOT


##########                                Name:    ZINC000840464592
##########                DOCK_Rotatable_Bonds:                  10
##########                         Heavy_Atoms:                  26
##########                    Molecular_Weight:             360.497
##########                DOCK_Rotatable_Bonds:                  10
##########                       Formal_Charge:          -0.0399996
##########                     HBond_Acceptors:                   5
##########                        HBond_Donors:                   1
##########                         Heavy_Atoms:                  26
##########                          Grid_Score:          -31.619888
##########                     Grid_vdw_energy:          -31.121008
##########                      Grid_es_energy:           -0.498881
##########           Internal_energy_repulsive:           80.554169

@<TRIPOS>MOLECULE
ZINC000840464592
 58 59 1 0 0
SMALL
USER_CHARGES


@<TRIPOS>ATOM
      1 C1         -2.0651    3.0771   56.3051 C.3     1  ZINC000840464592   -0.1500
      2 C2         -1.7264    3.2864   54.8278 C.3     1  ZINC000840464592   -0.1300
      3 C3         -0.2447    3.6412   54.6895 C.3     1  ZINC000840464592   -0.1200
      4 C4          0.1139    3.7654   53.2073 C.3     1  ZINC000840464592   -0.1200
      5 C5          1.5841    4.1661   53.0700 C.3     1  ZINC000840464592   -0.1200
      6 C6          1.9215    4.3693   51.5916 C.3     1  ZINC000840464592    0.0600
      7 O7          1.8073    3.1233   50.9013 O.3     1  ZINC000840464592   -0.3600
      8 C8          2.3899    3.1262   49.5964 C.3     1  ZINC000840464592    0.0800
      9 H9          2.1270    4.0513   49.0832 H       1  ZINC000840464592    0.0800
     10 C10         3.9117    3.0245   49.7171 C.3     1  ZINC000840464592   -0.1800
     11 C11         1.8686    1.9505   48.8109 C.2     1  ZINC000840464592    0.5200
     12 O12         2.5922    1.0039   48.5841 O.2     1  ZINC000840464592   -0.5000
     13 N13         0.5984    1.9508   48.3605 N.am    1  ZINC000840464592   -0.6000
     14 C14        -0.2695    3.0929   48.6361 C.3     1  ZINC000840464592    0.0900
     15 C15        -1.4635    2.6932   49.4957 C.3     1  ZINC000840464592   -0.1600
     16 C16        -2.3318    1.6756   48.7524 C.3     1  ZINC000840464592    0.0800
     17 N17        -1.8421    0.3239   49.0443 N.am    1  ZINC000840464592   -0.7200
     18 C18        -0.6764   -0.1011   48.5315 C.2     1  ZINC000840464592    0.5100
     19 O19        -0.2466   -1.1994   48.8144 O.2     1  ZINC000840464592   -0.5200
     20 C20         0.0972    0.8070   47.5912 C.3     1  ZINC000840464592    0.1400
     21 H21         0.9351    0.2589   47.1605 H       1  ZINC000840464592    0.1300
     22 C22        -0.8264    1.2943   46.4729 C.3     1  ZINC000840464592   -0.1000
     23 C23        -0.1594    1.0755   45.1394 C.ar    1  ZINC000840464592   -0.0900
     24 C24         1.0967    1.6009   44.9003 C.ar    1  ZINC000840464592   -0.1100
     25 C25         1.7085    1.4002   43.6772 C.ar    1  ZINC000840464592   -0.1200
     26 C26         1.0645    0.6737   42.6932 C.ar    1  ZINC000840464592   -0.1200
     27 C27        -0.1911    0.1474   42.9326 C.ar    1  ZINC000840464592   -0.1200
     28 C28        -0.8011    0.3446   44.1572 C.ar    1  ZINC000840464592   -0.1100
     29 H29        -1.8576    3.9929   56.8586 H       1  ZINC000840464592    0.0500
     30 H30        -3.1208    2.8243   56.4035 H       1  ZINC000840464592    0.0500
     31 H31        -1.4581    2.2651   56.7054 H       1  ZINC000840464592    0.0500
     32 H32        -1.9340    2.3706   54.2742 H       1  ZINC000840464592    0.0600
     33 H33        -2.3334    4.0984   54.4274 H       1  ZINC000840464592    0.0600
     34 H34        -0.0496    4.5891   55.1911 H       1  ZINC000840464592    0.0600
     35 H35         0.3607    2.8576   55.1453 H       1  ZINC000840464592    0.0600
     36 H36        -0.0494    2.8079   52.7126 H       1  ZINC000840464592    0.0600
     37 H37        -0.5147    4.5257   52.7438 H       1  ZINC000840464592    0.0600
     38 H38         1.7600    5.0944   53.6137 H       1  ZINC000840464592    0.0700
     39 H39         2.2153    3.3786   53.4818 H       1  ZINC000840464592    0.0700
     40 H40         1.2293    5.0903   51.1568 H       1  ZINC000840464592    0.0500
     41 H41         2.9411    4.7435   51.4997 H       1  ZINC000840464592    0.0500
     42 H42         4.3512    2.9549   48.7221 H       1  ZINC000840464592    0.0800
     43 H43         4.2960    3.9102   50.2230 H       1  ZINC000840464592    0.0700
     44 H44         4.1720    2.1360   50.2921 H       1  ZINC000840464592    0.0800
     45 H45         0.3045    3.8587   49.1578 H       1  ZINC000840464592    0.1000
     46 H46        -0.6310    3.5015   47.6924 H       1  ZINC000840464592    0.0800
     47 H47        -1.1069    2.2523   50.4266 H       1  ZINC000840464592    0.0800
     48 H48        -2.0580    3.5783   49.7221 H       1  ZINC000840464592    0.1000
     49 H49        -3.3661    1.7680   49.0838 H       1  ZINC000840464592    0.0900
     50 H50        -2.2733    1.8608   47.6799 H       1  ZINC000840464592    0.1000
     51 H51        -2.3631   -0.2660   49.6112 H       1  ZINC000840464592    0.4000
     52 H52        -1.7628    0.7375   46.5065 H       1  ZINC000840464592    0.0900
     53 H53        -1.0304    2.3566   46.6072 H       1  ZINC000840464592    0.1000
     54 H54         1.5999    2.1686   45.6691 H       1  ZINC000840464592    0.1200
     55 H55         2.6896    1.8114   43.4902 H       1  ZINC000840464592    0.1200
     56 H56         1.5422    0.5174   41.7372 H       1  ZINC000840464592    0.1200
     57 H57        -0.6944   -0.4199   42.1636 H       1  ZINC000840464592    0.1200
     58 H58        -1.7822   -0.0666   44.3442 H       1  ZINC000840464592    0.1200
@<TRIPOS>BOND
     1     1     2    1
     2     1    29    1
     3     1    30    1
     4     1    31    1
     5     2     3    1
     6     2    32    1
     7     2    33    1
     8     3     4    1
     9     3    34    1
    10     3    35    1
    11     4     5    1
    12     4    36    1
    13     4    37    1
    14     5     6    1
    15     5    38    1
    16     5    39    1
    17     6     7    1
    18     6    40    1
    19     6    41    1
    20     7     8    1
    21     8     9    1
    22     8    10    1
    23     8    11    1
    24    10    42    1
    25    10    43    1
    26    10    44    1
    27    11    12    2
    28    11    13   am
    29    13    20    1
    30    13    14    1
    31    14    15    1
    32    14    45    1
    33    14    46    1
    34    15    16    1
    35    15    47    1
    36    15    48    1
    37    16    17    1
    38    16    49    1
    39    16    50    1
    40    17    18   am
    41    17    51    1
    42    18    19    2
    43    18    20    1
    44    20    21    1
    45    20    22    1
    46    22    23    1
    47    22    52    1
    48    22    53    1
    49    23    28   ar
    50    23    24   ar
    51    24    25   ar
    52    24    54    1
    53    25    26   ar
    54    25    55    1
    55    26    27   ar
    56    26    56    1
    57    27    28   ar
    58    27    57    1
    59    28    58    1
@<TRIPOS>SUBSTRUCTURE
     1 ZINC000840464592        1 TEMP              0 ****  ****    0 ROOT


##########                                Name:    ZINC001570985666
##########                DOCK_Rotatable_Bonds:                   7
##########                         Heavy_Atoms:                  26
##########                    Molecular_Weight:             357.415
##########                DOCK_Rotatable_Bonds:                   7
##########                       Formal_Charge:          -0.0100001
##########                     HBond_Acceptors:                   9
##########                        HBond_Donors:                   3
##########                         Heavy_Atoms:                  26
##########                          Grid_Score:          -31.600119
##########                     Grid_vdw_energy:          -30.189068
##########                      Grid_es_energy:           -1.411051
##########           Internal_energy_repulsive:            9.950090

@<TRIPOS>MOLECULE
ZINC001570985666
 49 52 1 0 0
SMALL
USER_CHARGES


@<TRIPOS>ATOM
      1 C1          1.7373    3.5263   50.1400 C.3     1  ZINC001570985666   -0.1600
      2 C2          0.2639    3.1373   50.2782 C.3     1  ZINC001570985666    0.1300
      3 H3          0.1608    2.0533   50.2303 H       1  ZINC001570985666    0.0800
      4 C4         -0.5600    3.7933   49.1501 C.3     1  ZINC001570985666    0.1400
      5 H5         -0.0506    4.6762   48.7638 H       1  ZINC001570985666    0.1100
      6 N6         -0.8197    2.8345   48.0733 N.am    1  ZINC001570985666   -0.7200
      7 C7         -0.1746    2.9525   46.8959 C.2     1  ZINC001570985666    0.6000
      8 O8          0.6223    3.8556   46.7269 O.2     1  ZINC001570985666   -0.5300
      9 C9         -0.4344    1.9873   45.8137 C.2     1  ZINC001570985666   -0.2300
     10 C10        -1.5287    1.1573   45.7000 C.2     1  ZINC001570985666    0.0700
     11 N11        -1.3924    0.4310   44.5728 N.pl3   1  ZINC001570985666   -0.5200
     12 C12        -0.2196    0.7785   43.9490 C.2     1  ZINC001570985666    0.0600
     13 C13         0.2893    0.2056   42.6827 C.2     1  ZINC001570985666    0.2500
     14 N14         1.4975    0.3624   42.1757 N.2     1  ZINC001570985666   -0.3100
     15 N15         1.5471   -0.2917   41.0664 N.pl3   1  ZINC001570985666   -0.2200
     16 N16         0.4107   -0.8576   40.8537 N.2     1  ZINC001570985666   -0.0400
     17 N17        -0.3859   -0.5791   41.8291 N.2     1  ZINC001570985666   -0.2600
     18 C18         0.3915    1.7397   44.6866 C.2     1  ZINC001570985666   -0.0600
     19 C19        -1.8775    4.1894   49.8674 C.3     1  ZINC001570985666   -0.1500
     20 C20        -1.3595    4.5870   51.2721 C.3     1  ZINC001570985666    0.1000
     21 N21        -0.2667    3.6342   51.5561 N.am    1  ZINC001570985666   -0.6200
     22 C22         0.1700    3.2825   52.7817 C.2     1  ZINC001570985666    0.5300
     23 O23         1.0792    2.4880   52.8965 O.2     1  ZINC001570985666   -0.5300
     24 C24        -0.4713    3.8764   54.0093 C.3     1  ZINC001570985666   -0.1300
     25 C25         0.4263    3.6298   55.2235 C.3     1  ZINC001570985666   -0.1000
     26 C26        -0.0813    4.3001   56.5111 C.3     1  ZINC001570985666   -0.1300
     27 C27         0.3490    3.0231   57.2521 C.3     1  ZINC001570985666   -0.1400
     28 C28         0.1679    2.2817   55.9170 C.3     1  ZINC001570985666   -0.1400
     29 H29         2.3118    3.0643   50.9429 H       1  ZINC001570985666    0.0700
     30 H30         2.1153    3.1815   49.1777 H       1  ZINC001570985666    0.0700
     31 H31         1.8342    4.6102   50.2012 H       1  ZINC001570985666    0.0600
     32 H32        -1.4561    2.1149   48.2077 H       1  ZINC001570985666    0.4000
     33 H33        -2.3534    1.0985   46.3949 H       1  ZINC001570985666    0.1800
     34 H34        -2.0232   -0.2327   44.2529 H       1  ZINC001570985666    0.4300
     35 H35         2.3198   -0.3485   40.4828 H       1  ZINC001570985666    0.4800
     36 H36         1.3320    2.2205   44.4618 H       1  ZINC001570985666    0.1600
     37 H37        -2.3527    5.0362   49.3720 H       1  ZINC001570985666    0.0900
     38 H38        -2.5596    3.3413   49.9281 H       1  ZINC001570985666    0.0800
     39 H39        -0.9802    5.6088   51.2613 H       1  ZINC001570985666    0.0800
     40 H40        -2.1529    4.4837   52.0122 H       1  ZINC001570985666    0.0800
     41 H41        -0.6036    4.9489   53.8672 H       1  ZINC001570985666    0.0900
     42 H42        -1.4421    3.4091   54.1742 H       1  ZINC001570985666    0.0900
     43 H43         1.4796    3.8196   55.0168 H       1  ZINC001570985666    0.1000
     44 H44         0.4888    5.1840   56.7972 H       1  ZINC001570985666    0.0700
     45 H45        -1.1582    4.4685   56.5204 H       1  ZINC001570985666    0.0800
     46 H46         1.3812    3.0477   57.6013 H       1  ZINC001570985666    0.0800
     47 H47        -0.3530    2.7090   58.0246 H       1  ZINC001570985666    0.0700
     48 H48        -0.8410    1.8982   55.7638 H       1  ZINC001570985666    0.0800
     49 H49         0.9390    1.5362   55.7234 H       1  ZINC001570985666    0.0700
@<TRIPOS>BOND
     1     1     2    1
     2     1    29    1
     3     1    30    1
     4     1    31    1
     5     2     3    1
     6     2    21    1
     7     2     4    1
     8     4     5    1
     9     4     6    1
    10     4    19    1
    11     6     7   am
    12     6    32    1
    13     7     8    2
    14     7     9    1
    15     9    18    1
    16     9    10    2
    17    10    11    1
    18    10    33    1
    19    11    12    1
    20    11    34    1
    21    12    13    1
    22    12    18    2
    23    13    17    1
    24    13    14    2
    25    14    15    1
    26    15    16    1
    27    15    35    1
    28    16    17    2
    29    18    36    1
    30    19    20    1
    31    19    37    1
    32    19    38    1
    33    20    21    1
    34    20    39    1
    35    20    40    1
    36    21    22   am
    37    22    23    2
    38    22    24    1
    39    24    25    1
    40    24    41    1
    41    24    42    1
    42    25    28    1
    43    25    26    1
    44    25    43    1
    45    26    27    1
    46    26    44    1
    47    26    45    1
    48    27    28    1
    49    27    46    1
    50    27    47    1
    51    28    48    1
    52    28    49    1
@<TRIPOS>SUBSTRUCTURE
     1 ZINC001570985666        1 TEMP              0 ****  ****    0 ROOT


##########                                Name:    ZINC001312809190
##########                DOCK_Rotatable_Bonds:                   6
##########                         Heavy_Atoms:                  29
##########                    Molecular_Weight:             395.501
##########                DOCK_Rotatable_Bonds:                   6
##########                       Formal_Charge:           0.0199995
##########                     HBond_Acceptors:                   6
##########                        HBond_Donors:                   1
##########                         Heavy_Atoms:                  29
##########                          Grid_Score:          -31.576525
##########                     Grid_vdw_energy:          -31.471008
##########                      Grid_es_energy:           -0.105516
##########           Internal_energy_repulsive:           31.799902

@<TRIPOS>MOLECULE
ZINC001312809190
 58 61 1 0 0
SMALL
USER_CHARGES


@<TRIPOS>ATOM
      1 C1          3.6989    1.2495   47.6210 C.3     1  ZINC001312809190    0.0300
      2 O2          3.2161    0.0197   48.1655 O.3     1  ZINC001312809190   -0.3200
      3 C3          1.8691   -0.1595   48.1855 C.ar    1  ZINC001312809190    0.1300
      4 C4          1.3300   -1.3159   48.7293 C.ar    1  ZINC001312809190   -0.2100
      5 C5         -0.0398   -1.4954   48.7489 C.ar    1  ZINC001312809190   -0.0800
      6 C6         -0.8730   -0.5238   48.2264 C.ar    1  ZINC001312809190   -0.1300
      7 C7         -0.3379    0.6299   47.6831 C.ar    1  ZINC001312809190   -0.0500
      8 C8         -1.2489    1.6869   47.1140 C.3     1  ZINC001312809190    0.1200
      9 H9         -2.1945    1.2314   46.8197 H       1  ZINC001312809190    0.0500
     10 C10        -0.5878    2.3254   45.8909 C.3     1  ZINC001312809190   -0.1400
     11 N11        -1.4976    2.7180   48.1304 N.3     1  ZINC001312809190   -0.5300
     12 C12        -0.2442    3.1404   48.7695 C.3     1  ZINC001312809190    0.0300
     13 C13        -0.5202    4.3362   49.6871 C.3     1  ZINC001312809190    0.1400
     14 N14        -1.6004    3.9723   50.6166 N.am    1  ZINC001312809190   -0.6300
     15 C15        -1.4584    4.1486   51.9452 C.2     1  ZINC001312809190    0.7100
     16 O16        -0.4269    4.6141   52.3899 O.2     1  ZINC001312809190   -0.5800
     17 N17        -2.4598    3.8089   52.7809 N.am    1  ZINC001312809190   -0.7300
     18 C18        -2.3054    4.0006   54.2250 C.3     1  ZINC001312809190    0.1800
     19 H19        -1.6345    4.8333   54.4360 H       1  ZINC001312809190    0.1200
     20 C20        -3.6518    4.2071   54.8914 C.ar    1  ZINC001312809190   -0.1900
     21 C21        -4.7304    5.0006   54.5702 C.ar    1  ZINC001312809190   -0.0500
     22 C22        -5.8606    4.9874   55.3688 C.ar    1  ZINC001312809190   -0.1500
     23 C23        -5.9014    4.1762   56.4874 C.ar    1  ZINC001312809190   -0.0800
     24 C24        -4.8204    3.3830   56.8130 C.ar    1  ZINC001312809190   -0.1400
     25 C25        -3.6782    3.3929   56.0168 C.ar    1  ZINC001312809190    0.1100
     26 O26        -2.5074    2.7133   56.1609 O.3     1  ZINC001312809190   -0.2900
     27 C27        -1.8069    2.7032   54.9047 C.3     1  ZINC001312809190    0.0800
     28 H28        -2.0828    1.8285   54.3157 H       1  ZINC001312809190    0.0900
     29 C29        -0.2940    2.7488   55.1274 C.3     1  ZINC001312809190   -0.1500
     30 C30        -2.8400    3.4114   50.0577 C.3     1  ZINC001312809190    0.1200
     31 C31        -2.4726    2.2520   49.1255 C.3     1  ZINC001312809190    0.0400
     32 C32         1.0306    0.8168   47.6669 C.ar    1  ZINC001312809190   -0.1500
     33 H33         4.7879    1.2636   47.6651 H       1  ZINC001312809190    0.1000
     34 H34         3.3761    1.3392   46.5837 H       1  ZINC001312809190    0.0600
     35 H35         3.3011    2.0837   48.1988 H       1  ZINC001312809190    0.0600
     36 H36         1.9804   -2.0757   49.1369 H       1  ZINC001312809190    0.1300
     37 H37        -0.4601   -2.3957   49.1722 H       1  ZINC001312809190    0.1300
     38 H38        -1.9434   -0.6660   48.2422 H       1  ZINC001312809190    0.1300
     39 H39         0.3578    2.7809   46.1853 H       1  ZINC001312809190    0.0700
     40 H40        -0.4032    1.5604   45.1368 H       1  ZINC001312809190    0.0600
     41 H41        -1.2468    3.0899   45.4793 H       1  ZINC001312809190    0.0600
     42 H42         0.1599    2.3163   49.3576 H       1  ZINC001312809190    0.0400
     43 H43         0.4757    3.4282   48.0034 H       1  ZINC001312809190    0.1000
     44 H44         0.3803    4.5812   50.2501 H       1  ZINC001312809190    0.1000
     45 H45        -0.8258    5.1942   49.0884 H       1  ZINC001312809190    0.0700
     46 H46        -3.2828    3.4377   52.4261 H       1  ZINC001312809190    0.4000
     47 H47        -4.6942    5.6331   53.6956 H       1  ZINC001312809190    0.1200
     48 H48        -6.7077    5.6091   55.1191 H       1  ZINC001312809190    0.1300
     49 H49        -6.7838    4.1634   57.1098 H       1  ZINC001312809190    0.1300
     50 H50        -4.8602    2.7525   57.6889 H       1  ZINC001312809190    0.1300
     51 H51         0.0177    1.8667   55.6868 H       1  ZINC001312809190    0.0800
     52 H52         0.2148    2.7664   54.1636 H       1  ZINC001312809190    0.0800
     53 H53        -0.0364    3.6458   55.6907 H       1  ZINC001312809190    0.0700
     54 H54        -3.4730    3.0451   50.8659 H       1  ZINC001312809190    0.0800
     55 H55        -3.3685    4.1806   49.4946 H       1  ZINC001312809190    0.0800
     56 H56        -3.3688    1.8957   48.6176 H       1  ZINC001312809190    0.0900
     57 H57        -2.0374    1.4404   49.7086 H       1  ZINC001312809190    0.0400
     58 H58         1.4479    1.7181   47.2428 H       1  ZINC001312809190    0.1300
@<TRIPOS>BOND
     1     1     2    1
     2     1    33    1
     3     1    34    1
     4     1    35    1
     5     2     3    1
     6     3    32   ar
     7     3     4   ar
     8     4     5   ar
     9     4    36    1
    10     5     6   ar
    11     5    37    1
    12     6     7   ar
    13     6    38    1
    14     7     8    1
    15     7    32   ar
    16     8     9    1
    17     8    10    1
    18     8    11    1
    19    10    39    1
    20    10    40    1
    21    10    41    1
    22    11    31    1
    23    11    12    1
    24    12    13    1
    25    12    42    1
    26    12    43    1
    27    13    14    1
    28    13    44    1
    29    13    45    1
    30    14    15   am
    31    14    30    1
    32    15    16    2
    33    15    17   am
    34    17    18    1
    35    17    46    1
    36    18    19    1
    37    18    27    1
    38    18    20    1
    39    20    25   ar
    40    20    21   ar
    41    21    22   ar
    42    21    47    1
    43    22    23   ar
    44    22    48    1
    45    23    24   ar
    46    23    49    1
    47    24    25   ar
    48    24    50    1
    49    25    26    1
    50    26    27    1
    51    27    28    1
    52    27    29    1
    53    29    51    1
    54    29    52    1
    55    29    53    1
    56    30    31    1
    57    30    54    1
    58    30    55    1
    59    31    56    1
    60    31    57    1
    61    32    58    1
@<TRIPOS>SUBSTRUCTURE
     1 ZINC001312809190        1 TEMP              0 ****  ****    0 ROOT


##########                                Name:    ZINC000129637895
##########                DOCK_Rotatable_Bonds:                   7
##########                         Heavy_Atoms:                  26
##########                    Molecular_Weight:             374.464
##########                DOCK_Rotatable_Bonds:                   7
##########                       Formal_Charge:        -5.51343e-07
##########                     HBond_Acceptors:                   8
##########                        HBond_Donors:                   1
##########                         Heavy_Atoms:                  26
##########                          Grid_Score:          -31.563887
##########                     Grid_vdw_energy:          -30.353868
##########                      Grid_es_energy:           -1.210017
##########           Internal_energy_repulsive:           19.246792

@<TRIPOS>MOLECULE
ZINC000129637895
 48 50 1 0 0
SMALL
USER_CHARGES


@<TRIPOS>ATOM
      1 C1         -1.1075    3.1422   56.4801 C.3     1  ZINC000129637895   -0.1500
      2 C2         -2.1155    2.1497   55.8972 C.3     1  ZINC000129637895   -0.0500
      3 C3         -3.3627    2.8863   55.4815 C.2     1  ZINC000129637895    0.0300
      4 C4         -3.4541    3.5741   54.3291 C.2     1  ZINC000129637895   -0.0200
      5 N5         -2.4493    3.7101   53.3722 N.am    1  ZINC000129637895   -0.5900
      6 C6         -2.3021    4.8750   52.7104 C.2     1  ZINC000129637895    0.5000
      7 O7         -3.0437    5.8064   52.9487 O.2     1  ZINC000129637895   -0.4800
      8 C8         -1.2276    5.0200   51.6847 C.2     1  ZINC000129637895    0.5200
      9 O9         -0.1427    5.4630   52.0008 O.2     1  ZINC000129637895   -0.5100
     10 N10        -1.4620    4.6590   50.4075 N.am    1  ZINC000129637895   -0.5800
     11 C11        -0.4152    4.7878   49.3824 C.3     1  ZINC000129637895    0.0800
     12 C12        -0.2851    3.4489   48.6485 C.3     1  ZINC000129637895    0.0400
     13 N13        -1.6029    3.0412   48.1430 N.3     1  ZINC000129637895   -0.4900
     14 C14        -1.4990    1.9106   47.3296 C.ar    1  ZINC000129637895    0.1500
     15 C15        -1.9629    1.9504   46.0206 C.ar    1  ZINC000129637895   -0.2100
     16 C16        -1.8596    0.8320   45.2161 C.ar    1  ZINC000129637895   -0.0500
     17 C17        -1.2956   -0.3284   45.7107 C.ar    1  ZINC000129637895   -0.2300
     18 C18        -0.8304   -0.3741   47.0177 C.ar    1  ZINC000129637895    0.1500
     19 O19        -0.2755   -1.5161   47.5023 O.3     1  ZINC000129637895   -0.3200
     20 C20         0.0615   -1.5351   48.8908 C.3     1  ZINC000129637895    0.0300
     21 C21        -0.9269    0.7472   47.8262 C.ar    1  ZINC000129637895   -0.1700
     22 C22        -2.5485    2.8129   49.2436 C.3     1  ZINC000129637895    0.0400
     23 C23        -2.7693    4.1200   50.0032 C.3     1  ZINC000129637895    0.1100
     24 S24        -5.0699    4.2718   54.2434 S.3     1  ZINC000129637895    0.2400
     25 C25        -5.4615    3.5753   55.7547 C.2     1  ZINC000129637895   -0.0300
     26 N26        -4.4584    2.9068   56.2134 N.2     1  ZINC000129637895   -0.4500
     27 H27        -0.8548    3.8882   55.7267 H       1  ZINC000129637895    0.0600
     28 H28        -1.5441    3.6359   57.3482 H       1  ZINC000129637895    0.0500
     29 H29        -0.2053    2.6094   56.7809 H       1  ZINC000129637895    0.0700
     30 H30        -1.6787    1.6559   55.0291 H       1  ZINC000129637895    0.0900
     31 H31        -2.3682    1.4037   56.6506 H       1  ZINC000129637895    0.0700
     32 H32        -1.8561    2.9664   53.1827 H       1  ZINC000129637895    0.4300
     33 H33        -0.6910    5.5686   48.6736 H       1  ZINC000129637895    0.0900
     34 H34         0.5334    5.0388   49.8571 H       1  ZINC000129637895    0.1400
     35 H35         0.4071    3.5575   47.8136 H       1  ZINC000129637895    0.1000
     36 H36         0.0905    2.6918   49.3368 H       1  ZINC000129637895    0.0500
     37 H37        -2.4048    2.8559   45.6319 H       1  ZINC000129637895    0.1300
     38 H38        -2.2207    0.8647   44.1988 H       1  ZINC000129637895    0.1300
     39 H39        -1.2169   -1.2013   45.0795 H       1  ZINC000129637895    0.1300
     40 H40         0.7842   -0.7466   49.1003 H       1  ZINC000129637895    0.0600
     41 H41        -0.8375   -1.3712   49.4851 H       1  ZINC000129637895    0.0600
     42 H42         0.4945   -2.5022   49.1463 H       1  ZINC000129637895    0.1000
     43 H43        -0.5652    0.7136   48.8433 H       1  ZINC000129637895    0.1300
     44 H44        -3.4977    2.4601   48.8403 H       1  ZINC000129637895    0.1000
     45 H45        -2.1414    2.0646   49.9237 H       1  ZINC000129637895    0.0500
     46 H46        -3.3787    3.9314   50.8871 H       1  ZINC000129637895    0.1100
     47 H47        -3.2710    4.8394   49.3560 H       1  ZINC000129637895    0.0900
     48 H48        -6.4145    3.6770   56.2524 H       1  ZINC000129637895    0.2000
@<TRIPOS>BOND
     1     1     2    1
     2     1    27    1
     3     1    28    1
     4     1    29    1
     5     2     3    1
     6     2    30    1
     7     2    31    1
     8     3    26    1
     9     3     4    2
    10     4     5    1
    11     4    24    1
    12     5     6   am
    13     5    32    1
    14     6     7    2
    15     6     8    1
    16     8     9    2
    17     8    10   am
    18    10    23    1
    19    10    11    1
    20    11    12    1
    21    11    33    1
    22    11    34    1
    23    12    13    1
    24    12    35    1
    25    12    36    1
    26    13    14    1
    27    13    22    1
    28    14    21   ar
    29    14    15   ar
    30    15    16   ar
    31    15    37    1
    32    16    17   ar
    33    16    38    1
    34    17    18   ar
    35    17    39    1
    36    18    19    1
    37    18    21   ar
    38    19    20    1
    39    20    40    1
    40    20    41    1
    41    20    42    1
    42    21    43    1
    43    22    23    1
    44    22    44    1
    45    22    45    1
    46    23    46    1
    47    23    47    1
    48    24    25    1
    49    25    26    2
    50    25    48    1
@<TRIPOS>SUBSTRUCTURE
     1 ZINC000129637895        1 TEMP              0 ****  ****    0 ROOT


##########                                Name:    ZINC000375477402
##########                DOCK_Rotatable_Bonds:                   5
##########                         Heavy_Atoms:                  26
##########                    Molecular_Weight:             378.342
##########                DOCK_Rotatable_Bonds:                   5
##########                       Formal_Charge:         -1.2666e-07
##########                     HBond_Acceptors:                   9
##########                        HBond_Donors:                   1
##########                         Heavy_Atoms:                  26
##########                          Grid_Score:          -31.543575
##########                     Grid_vdw_energy:          -31.743330
##########                      Grid_es_energy:            0.199754
##########           Internal_energy_repulsive:            7.668839

@<TRIPOS>MOLECULE
ZINC000375477402
 45 47 1 0 0
SMALL
USER_CHARGES


@<TRIPOS>ATOM
      1 O1         -3.7618    2.0404   50.5701 O.2     1  ZINC000375477402   -0.5600
      2 C2         -2.7940    2.7711   50.4806 C.2     1  ZINC000375477402    0.7200
      3 N3         -2.6534    3.8100   51.3276 N.am    1  ZINC000375477402   -0.7300
      4 C4         -3.6696    4.0624   52.3523 C.3     1  ZINC000375477402    0.1800
      5 H5         -4.6325    3.6825   52.0105 H       1  ZINC000375477402    0.1500
      6 C6         -3.2791    3.3647   53.6297 C.ar    1  ZINC000375477402   -0.1300
      7 C7         -1.9448    3.1503   53.9199 C.ar    1  ZINC000375477402   -0.0800
      8 C8         -1.5848    2.5104   55.0914 C.ar    1  ZINC000375477402   -0.0900
      9 C9         -2.5584    2.0836   55.9747 C.ar    1  ZINC000375477402   -0.1100
     10 C10        -3.8954    2.2967   55.6870 C.ar    1  ZINC000375477402    0.0800
     11 F11        -4.8477    1.8799   56.5499 F       1  ZINC000375477402   -0.1200
     12 C12        -4.2562    2.9436   54.5149 C.ar    1  ZINC000375477402    0.1000
     13 F13        -5.5605    3.1528   54.2319 F       1  ZINC000375477402   -0.1100
     14 C14        -3.7760    5.5675   52.6052 C.3     1  ZINC000375477402    0.4400
     15 F15        -4.7738    5.8115   53.5549 F       1  ZINC000375477402   -0.1600
     16 F16        -2.5514    6.0480   53.0814 F       1  ZINC000375477402   -0.1700
     17 F17        -4.0999    6.2195   51.4104 F       1  ZINC000375477402   -0.1800
     18 N18        -1.8592    2.5389   49.5380 N.am    1  ZINC000375477402   -0.6300
     19 C19        -0.6390    3.3386   49.3216 C.3     1  ZINC000375477402    0.1000
     20 C20         0.3504    2.3742   48.6185 C.3     1  ZINC000375477402   -0.1200
     21 C21        -0.6024    1.5576   47.7173 C.3     1  ZINC000375477402   -0.1100
     22 C22        -1.8831    1.4412   48.5576 C.3     1  ZINC000375477402    0.1400
     23 C23        -0.8695    2.3075   46.4182 C.3     1  ZINC000375477402   -0.1100
     24 C24        -1.7636    1.4485   45.5164 C.3     1  ZINC000375477402   -0.1600
     25 C25        -1.0969    0.0870   45.3022 C.3     1  ZINC000375477402    0.0600
     26 O26        -0.8848   -0.5446   46.5665 O.3     1  ZINC000375477402   -0.3800
     27 C27        -0.0152    0.1801   47.4409 C.3     1  ZINC000375477402    0.0800
     28 H28        -1.8794    4.3905   51.2588 H       1  ZINC000375477402    0.4000
     29 H29        -1.1827    3.4828   53.2307 H       1  ZINC000375477402    0.1400
     30 H30        -0.5418    2.3435   55.3164 H       1  ZINC000375477402    0.1500
     31 H31        -2.2760    1.5835   56.8893 H       1  ZINC000375477402    0.1500
     32 H32        -0.8548    4.1937   48.6810 H       1  ZINC000375477402    0.0700
     33 H33        -0.2301    3.6720   50.2754 H       1  ZINC000375477402    0.0700
     34 H34         1.0762    2.9260   48.0212 H       1  ZINC000375477402    0.0900
     35 H35         0.8506    1.7310   49.3425 H       1  ZINC000375477402    0.0800
     36 H36        -1.9051    0.4790   49.0695 H       1  ZINC000375477402    0.0800
     37 H37        -2.7585    1.5432   47.9162 H       1  ZINC000375477402    0.0700
     38 H38        -1.3716    3.2497   46.6380 H       1  ZINC000375477402    0.0700
     39 H39         0.0749    2.5064   45.9116 H       1  ZINC000375477402    0.0700
     40 H40        -2.7341    1.3083   45.9924 H       1  ZINC000375477402    0.0700
     41 H41        -1.8960    1.9449   44.5550 H       1  ZINC000375477402    0.0800
     42 H42        -1.7414   -0.5402   44.6863 H       1  ZINC000375477402    0.1000
     43 H43        -0.1393    0.2264   44.8007 H       1  ZINC000375477402    0.0500
     44 H44         0.9624    0.2898   46.9716 H       1  ZINC000375477402    0.0600
     45 H45         0.0918   -0.3638   48.3793 H       1  ZINC000375477402    0.1000
@<TRIPOS>BOND
     1     1     2    2
     2     2     3   am
     3     2    18   am
     4     3     4    1
     5     3    28    1
     6     4     5    1
     7     4     6    1
     8     4    14    1
     9     6    12   ar
    10     6     7   ar
    11     7     8   ar
    12     7    29    1
    13     8     9   ar
    14     8    30    1
    15     9    10   ar
    16     9    31    1
    17    10    11    1
    18    10    12   ar
    19    12    13    1
    20    14    15    1
    21    14    16    1
    22    14    17    1
    23    18    22    1
    24    18    19    1
    25    19    20    1
    26    19    32    1
    27    19    33    1
    28    20    21    1
    29    20    34    1
    30    20    35    1
    31    21    27    1
    32    21    22    1
    33    21    23    1
    34    22    36    1
    35    22    37    1
    36    23    24    1
    37    23    38    1
    38    23    39    1
    39    24    25    1
    40    24    40    1
    41    24    41    1
    42    25    26    1
    43    25    42    1
    44    25    43    1
    45    26    27    1
    46    27    44    1
    47    27    45    1
@<TRIPOS>SUBSTRUCTURE
     1 ZINC000375477402        1 TEMP              0 ****  ****    0 ROOT


##########                                Name:    ZINC000590699876
##########                DOCK_Rotatable_Bonds:                   9
##########                         Heavy_Atoms:                  30
##########                    Molecular_Weight:              421.54
##########                DOCK_Rotatable_Bonds:                   9
##########                       Formal_Charge:          -0.0300004
##########                     HBond_Acceptors:                   9
##########                        HBond_Donors:                   1
##########                         Heavy_Atoms:                  30
##########                          Grid_Score:          -31.535156
##########                     Grid_vdw_energy:          -30.304974
##########                      Grid_es_energy:           -1.230182
##########           Internal_energy_repulsive:          101.885216

@<TRIPOS>MOLECULE
ZINC000590699876
 65 67 1 0 0
SMALL
USER_CHARGES


@<TRIPOS>ATOM
      1 C1         -2.6525    2.4894   49.3621 C.3     1  ZINC000590699876   -0.1700
      2 C2         -3.0878    3.4508   50.4378 C.2     1  ZINC000590699876    0.5100
      3 O3         -3.0498    4.6458   50.2346 O.2     1  ZINC000590699876   -0.5500
      4 N4         -3.5195    2.9826   51.6255 N.am    1  ZINC000590699876   -0.7200
      5 C5         -3.9411    3.9173   52.6719 C.3     1  ZINC000590699876    0.1100
      6 C6         -5.0001    3.2702   53.5268 C.2     1  ZINC000590699876    0.5300
      7 O7         -5.7242    2.4195   53.0547 O.2     1  ZINC000590699876   -0.5200
      8 N8         -5.1426    3.6368   54.8158 N.am    1  ZINC000590699876   -0.6000
      9 C9         -4.3344    4.6529   55.5145 C.3     1  ZINC000590699876    0.1000
     10 C10        -5.2319    5.1415   56.6788 C.3     1  ZINC000590699876   -0.1300
     11 C11        -5.9380    3.8260   57.1009 C.3     1  ZINC000590699876   -0.1300
     12 C12        -6.1338    3.0944   55.7564 C.3     1  ZINC000590699876    0.1200
     13 H13        -5.9661    2.0255   55.8883 H       1  ZINC000590699876    0.1000
     14 C14        -7.5294    3.3342   55.2408 C.2     1  ZINC000590699876    0.5100
     15 O15        -7.7150    4.1218   54.3373 O.2     1  ZINC000590699876   -0.5200
     16 N16        -8.5712    2.6737   55.7837 N.am    1  ZINC000590699876   -0.6100
     17 C17        -9.9402    2.8871   55.2902 C.3     1  ZINC000590699876    0.1000
     18 C18       -10.5668    1.5218   54.9874 C.3     1  ZINC000590699876    0.0400
     19 N19       -10.4614    0.6639   56.1752 N.3     1  ZINC000590699876   -0.5200
     20 C20       -11.2008   -0.5911   55.9854 C.3     1  ZINC000590699876    0.0400
     21 C21       -11.6854   -1.0954   57.3201 C.2     1  ZINC000590699876    0.5200
     22 O22       -11.6493   -0.3705   58.2918 O.2     1  ZINC000590699876   -0.5100
     23 N23       -12.1590   -2.3520   57.4342 N.am    1  ZINC000590699876   -0.6100
     24 C24       -12.2092   -3.2421   56.2663 C.3     1  ZINC000590699876    0.1100
     25 C25       -13.6352   -3.7820   56.1187 C.3     1  ZINC000590699876   -0.1400
     26 C26       -14.0647   -4.4422   57.4309 C.3     1  ZINC000590699876   -0.1200
     27 C27       -14.0557   -3.4024   58.5538 C.3     1  ZINC000590699876   -0.1300
     28 C28       -12.6293   -2.8601   58.7302 C.3     1  ZINC000590699876    0.1400
     29 H29       -11.9741   -3.6602   59.0746 H       1  ZINC000590699876    0.0700
     30 C30       -12.6354   -1.7247   59.7559 C.3     1  ZINC000590699876   -0.1400
     31 C31        -9.0577    0.4010   56.5196 C.3     1  ZINC000590699876    0.0400
     32 C32        -8.3685    1.7158   56.8812 C.3     1  ZINC000590699876    0.1200
     33 H33        -2.3388    3.0483   48.4805 H       1  ZINC000590699876    0.1000
     34 H34        -1.8193    1.8888   49.7270 H       1  ZINC000590699876    0.0900
     35 H35        -3.4845    1.8355   49.1008 H       1  ZINC000590699876    0.0900
     36 H36        -3.5512    2.0268   51.7877 H       1  ZINC000590699876    0.4100
     37 H37        -3.0837    4.1794   53.2920 H       1  ZINC000590699876    0.1000
     38 H38        -4.3461    4.8189   52.2121 H       1  ZINC000590699876    0.1000
     39 H39        -3.4183    4.2076   55.9028 H       1  ZINC000590699876    0.0800
     40 H40        -4.1007    5.4790   54.8431 H       1  ZINC000590699876    0.0800
     41 H41        -4.6299    5.5410   57.4949 H       1  ZINC000590699876    0.0900
     42 H42        -5.9552    5.8792   56.3314 H       1  ZINC000590699876    0.0800
     43 H43        -5.3039    3.2458   57.7713 H       1  ZINC000590699876    0.1000
     44 H44        -6.9009    4.0374   57.5660 H       1  ZINC000590699876    0.0900
     45 H45       -10.5283    3.3991   56.0518 H       1  ZINC000590699876    0.0800
     46 H46        -9.9121    3.4870   54.3806 H       1  ZINC000590699876    0.0900
     47 H47       -11.6167    1.6535   54.7258 H       1  ZINC000590699876    0.0900
     48 H48       -10.0397    1.0564   54.1545 H       1  ZINC000590699876    0.0400
     49 H49       -12.0550   -0.4143   55.3318 H       1  ZINC000590699876    0.1000
     50 H50       -10.5447   -1.3344   55.5325 H       1  ZINC000590699876    0.0600
     51 H51       -11.9349   -2.6851   55.3705 H       1  ZINC000590699876    0.0800
     52 H52       -11.5172   -4.0719   56.4093 H       1  ZINC000590699876    0.0700
     53 H53       -14.3129   -2.9607   55.8858 H       1  ZINC000590699876    0.0700
     54 H54       -13.6643   -4.5176   55.3148 H       1  ZINC000590699876    0.0800
     55 H55       -15.0699   -4.8490   57.3208 H       1  ZINC000590699876    0.0700
     56 H56       -13.3723   -5.2474   57.6760 H       1  ZINC000590699876    0.0600
     57 H57       -14.7295   -2.5847   58.2980 H       1  ZINC000590699876    0.0700
     58 H58       -14.3842   -3.8679   59.4832 H       1  ZINC000590699876    0.0700
     59 H59       -13.0576   -2.0850   60.6941 H       1  ZINC000590699876    0.0400
     60 H60       -11.6145   -1.3821   59.9247 H       1  ZINC000590699876    0.0700
     61 H61       -13.2385   -0.8984   59.3797 H       1  ZINC000590699876    0.0700
     62 H62        -9.0132   -0.2802   57.3695 H       1  ZINC000590699876    0.1100
     63 H63        -8.5516   -0.0488   55.6655 H       1  ZINC000590699876    0.0300
     64 H64        -7.3022    1.5425   57.0259 H       1  ZINC000590699876    0.0900
     65 H65        -8.8042    2.1182   57.7956 H       1  ZINC000590699876    0.0800
@<TRIPOS>BOND
     1     1     2    1
     2     1    33    1
     3     1    34    1
     4     1    35    1
     5     2     3    2
     6     2     4   am
     7     4     5    1
     8     4    36    1
     9     5     6    1
    10     5    37    1
    11     5    38    1
    12     6     7    2
    13     6     8   am
    14     8    12    1
    15     8     9    1
    16     9    10    1
    17     9    39    1
    18     9    40    1
    19    10    11    1
    20    10    41    1
    21    10    42    1
    22    11    12    1
    23    11    43    1
    24    11    44    1
    25    12    13    1
    26    12    14    1
    27    14    15    2
    28    14    16   am
    29    16    32    1
    30    16    17    1
    31    17    18    1
    32    17    45    1
    33    17    46    1
    34    18    19    1
    35    18    47    1
    36    18    48    1
    37    19    20    1
    38    19    31    1
    39    20    21    1
    40    20    49    1
    41    20    50    1
    42    21    22    2
    43    21    23   am
    44    23    28    1
    45    23    24    1
    46    24    25    1
    47    24    51    1
    48    24    52    1
    49    25    26    1
    50    25    53    1
    51    25    54    1
    52    26    27    1
    53    26    55    1
    54    26    56    1
    55    27    28    1
    56    27    57    1
    57    27    58    1
    58    28    29    1
    59    28    30    1
    60    30    59    1
    61    30    60    1
    62    30    61    1
    63    31    32    1
    64    31    62    1
    65    31    63    1
    66    32    64    1
    67    32    65    1
@<TRIPOS>SUBSTRUCTURE
     1 ZINC000590699876        1 TEMP              0 ****  ****    0 ROOT


##########                                Name:    ZINC000992031068
##########                DOCK_Rotatable_Bonds:                   8
##########                         Heavy_Atoms:                  25
##########                    Molecular_Weight:             342.401
##########                DOCK_Rotatable_Bonds:                   8
##########                       Formal_Charge:           0.0199999
##########                     HBond_Acceptors:                   8
##########                        HBond_Donors:                   2
##########                         Heavy_Atoms:                  25
##########                          Grid_Score:          -31.527050
##########                     Grid_vdw_energy:          -28.608776
##########                      Grid_es_energy:           -2.918274
##########           Internal_energy_repulsive:            7.840041

@<TRIPOS>MOLECULE
ZINC000992031068
 47 49 1 0 0
SMALL
USER_CHARGES


@<TRIPOS>ATOM
      1 C1          3.0167    1.6354   42.8562 C.3     1  ZINC000992031068   -0.1100
      2 C2          1.6841    1.0298   43.2147 C.ar    1  ZINC000992031068    0.1800
      3 C3          1.1695    1.1716   44.4955 C.ar    1  ZINC000992031068   -0.1700
      4 C4         -0.0684    0.5930   44.7782 C.ar    1  ZINC000992031068    0.1300
      5 C5         -0.6666    0.7140   46.1314 C.2     1  ZINC000992031068    0.5700
      6 O6         -0.2304    0.0494   47.0499 O.2     1  ZINC000992031068   -0.5200
      7 N7         -1.6937    1.5610   46.3409 N.am    1  ZINC000992031068   -0.7100
      8 C8         -2.2829    1.6817   47.6767 C.3     1  ZINC000992031068    0.1300
      9 C9         -1.7361    2.9344   48.3642 C.3     1  ZINC000992031068   -0.1200
     10 C10        -2.5127    3.3306   49.6311 C.3     1  ZINC000992031068   -0.1400
     11 C11        -1.1524    3.6670   50.2645 C.3     1  ZINC000992031068    0.1200
     12 N12        -1.0426    3.2625   51.6683 N.am    1  ZINC000992031068   -0.7200
     13 C13        -0.7010    4.1684   52.6060 C.2     1  ZINC000992031068    0.5200
     14 O14        -0.4859    5.3187   52.2878 O.2     1  ZINC000992031068   -0.5200
     15 C15        -0.5864    3.7518   54.0497 C.3     1  ZINC000992031068   -0.0800
     16 C16         0.7993    3.2201   54.3105 C.2     1  ZINC000992031068    0.1000
     17 C17         1.5453    2.4835   53.4550 C.2     1  ZINC000992031068   -0.2500
     18 C18         2.7623    2.1971   54.0821 C.2     1  ZINC000992031068    0.0500
     19 N19         2.7475    2.7421   55.2714 N.2     1  ZINC000992031068   -0.2900
     20 N20         1.5208    3.3981   55.4370 N.pl3   1  ZINC000992031068   -0.3700
     21 C21         1.0932    4.1387   56.6264 C.3     1  ZINC000992031068    0.1000
     22 C22        -0.5340    2.6581   49.2825 C.3     1  ZINC000992031068   -0.1400
     23 N23        -0.7041   -0.0686   43.8142 N.ar    1  ZINC000992031068   -0.5000
     24 C24        -0.1775   -0.1777   42.6133 C.ar    1  ZINC000992031068    0.3000
     25 N25         0.9879    0.3611   42.3115 N.ar    1  ZINC000992031068   -0.5100
     26 H26         2.8674    2.6507   42.4890 H       1  ZINC000992031068    0.0900
     27 H27         3.6547    1.6587   43.7397 H       1  ZINC000992031068    0.0900
     28 H28         3.4919    1.0347   42.0806 H       1  ZINC000992031068    0.0900
     29 H29         1.7131    1.7154   45.2540 H       1  ZINC000992031068    0.1600
     30 H30        -2.0428    2.0909   45.6072 H       1  ZINC000992031068    0.4100
     31 H31        -3.3668    1.7586   47.5901 H       1  ZINC000992031068    0.0700
     32 H32        -2.0272    0.8021   48.2675 H       1  ZINC000992031068    0.0800
     33 H33        -1.5760    3.7612   47.6722 H       1  ZINC000992031068    0.1000
     34 H34        -3.1574    4.1987   49.4943 H       1  ZINC000992031068    0.0800
     35 H35        -3.0225    2.4946   50.1099 H       1  ZINC000992031068    0.0900
     36 H36        -0.8339    4.6955   50.0943 H       1  ZINC000992031068    0.1200
     37 H37        -1.2159    2.3427   51.9229 H       1  ZINC000992031068    0.4000
     38 H38        -0.7722    4.6125   54.6921 H       1  ZINC000992031068    0.1200
     39 H39        -1.3201    2.9742   54.2627 H       1  ZINC000992031068    0.1100
     40 H40         1.2526    2.1716   52.4633 H       1  ZINC000992031068    0.1500
     41 H41         3.5739    1.6244   53.6579 H       1  ZINC000992031068    0.1800
     42 H42         1.3947    5.1820   56.5327 H       1  ZINC000992031068    0.0800
     43 H43         0.0087    4.0810   56.7200 H       1  ZINC000992031068    0.0800
     44 H44         1.5579    3.7042   57.5115 H       1  ZINC000992031068    0.0900
     45 H45        -0.5029    1.6382   49.6661 H       1  ZINC000992031068    0.0900
     46 H46         0.4187    2.9834   48.8645 H       1  ZINC000992031068    0.0800
     47 H47        -0.7171   -0.7208   41.8516 H       1  ZINC000992031068    0.2100
@<TRIPOS>BOND
     1     1     2    1
     2     1    26    1
     3     1    27    1
     4     1    28    1
     5     2    25   ar
     6     2     3   ar
     7     3     4   ar
     8     3    29    1
     9     4     5    1
    10     4    23   ar
    11     5     6    2
    12     5     7   am
    13     7     8    1
    14     7    30    1
    15     8     9    1
    16     8    31    1
    17     8    32    1
    18     9    22    1
    19     9    10    1
    20     9    33    1
    21    10    11    1
    22    10    34    1
    23    10    35    1
    24    11    12    1
    25    11    22    1
    26    11    36    1
    27    12    13   am
    28    12    37    1
    29    13    14    2
    30    13    15    1
    31    15    16    1
    32    15    38    1
    33    15    39    1
    34    16    20    1
    35    16    17    2
    36    17    18    1
    37    17    40    1
    38    18    19    2
    39    18    41    1
    40    19    20    1
    41    20    21    1
    42    21    42    1
    43    21    43    1
    44    21    44    1
    45    22    45    1
    46    22    46    1
    47    23    24   ar
    48    24    25   ar
    49    24    47    1
@<TRIPOS>SUBSTRUCTURE
     1 ZINC000992031068        1 TEMP              0 ****  ****    0 ROOT


##########                                Name:    ZINC000587344575
##########                DOCK_Rotatable_Bonds:                   7
##########                         Heavy_Atoms:                  30
##########                    Molecular_Weight:             408.475
##########                DOCK_Rotatable_Bonds:                   7
##########                       Formal_Charge:          -0.0100002
##########                     HBond_Acceptors:                   7
##########                        HBond_Donors:                   2
##########                         Heavy_Atoms:                  30
##########                          Grid_Score:          -31.506371
##########                     Grid_vdw_energy:          -30.625721
##########                      Grid_es_energy:           -0.880649
##########           Internal_energy_repulsive:           11.873940

@<TRIPOS>MOLECULE
ZINC000587344575
 55 57 1 0 0
SMALL
USER_CHARGES


@<TRIPOS>ATOM
      1 C1          3.9884    2.1889   55.0749 C.3     1  ZINC000587344575   -0.1200
      2 C2          2.5024    2.3718   54.9034 C.ar    1  ZINC000587344575    0.0000
      3 C3          1.9622    2.4776   53.6418 C.ar    1  ZINC000587344575   -0.1600
      4 C4          0.5902    2.6459   53.4825 C.ar    1  ZINC000587344575    0.1800
      5 N5          0.0463    2.7523   52.2029 N.am    1  ZINC000587344575   -0.6700
      6 C6         -0.0283    3.9555   51.6002 C.2     1  ZINC000587344575    0.5200
      7 O7          0.3775    4.9457   52.1709 O.2     1  ZINC000587344575   -0.5000
      8 C8         -0.6162    4.0705   50.2174 C.3     1  ZINC000587344575   -0.1200
      9 H9         -0.3820    5.0442   49.7872 H       1  ZINC000587344575    0.1100
     10 C10        -2.1469    3.8594   50.2659 C.3     1  ZINC000587344575   -0.1200
     11 C11        -2.4231    3.0309   48.9860 C.3     1  ZINC000587344575    0.0400
     12 N12        -1.2472    2.1270   48.9059 N.3     1  ZINC000587344575   -0.4800
     13 C13        -1.0829    1.6348   47.6128 C.ar    1  ZINC000587344575    0.0700
     14 C14        -0.8038    2.5090   46.5679 C.ar    1  ZINC000587344575   -0.1200
     15 C15        -0.6412    2.0264   45.2882 C.ar    1  ZINC000587344575   -0.0700
     16 C16        -0.7563    0.6560   45.0392 C.ar    1  ZINC000587344575    0.0000
     17 C17        -0.5871    0.1518   43.7096 C.1     1  ZINC000587344575    0.2500
     18 N18        -0.4531   -0.2484   42.6549 N.1     1  ZINC000587344575   -0.4000
     19 C19        -1.0366   -0.2218   46.0913 C.ar    1  ZINC000587344575   -0.1000
     20 C20        -1.1931    0.2668   47.3702 C.ar    1  ZINC000587344575    0.1300
     21 F21        -1.4634   -0.5797   48.3878 F       1  ZINC000587344575   -0.1200
     22 C22        -0.0811    2.9443   49.3138 C.3     1  ZINC000587344575    0.0500
     23 C23        -0.2402    2.7079   54.5969 C.ar    1  ZINC000587344575   -0.1400
     24 C24         0.2935    2.6027   55.8617 C.ar    1  ZINC000587344575   -0.0600
     25 C25         1.6704    2.4283   56.0250 C.ar    1  ZINC000587344575   -0.1600
     26 C26         2.2460    2.3147   57.3794 C.2     1  ZINC000587344575    0.5600
     27 O27         2.5946    3.3142   57.9775 O.2     1  ZINC000587344575   -0.5300
     28 N28         2.3850    1.1031   57.9531 N.am    1  ZINC000587344575   -0.7200
     29 C29         2.9580    0.9903   59.2967 C.3     1  ZINC000587344575    0.1400
     30 C30         1.8422    1.0992   60.3378 C.3     1  ZINC000587344575   -0.1600
     31 C31         3.6592   -0.3621   59.4402 C.3     1  ZINC000587344575   -0.1600
     32 H32         4.2121    1.1295   55.1997 H       1  ZINC000587344575    0.0800
     33 H33         4.5052    2.5680   54.1933 H       1  ZINC000587344575    0.0600
     34 H34         4.3226    2.7372   55.9558 H       1  ZINC000587344575    0.1000
     35 H35         2.6042    2.4302   52.7745 H       1  ZINC000587344575    0.1300
     36 H36        -0.2784    1.9603   51.7466 H       1  ZINC000587344575    0.4100
     37 H37        -2.4311    3.2992   51.1567 H       1  ZINC000587344575    0.0900
     38 H38        -2.6695    4.8151   50.2269 H       1  ZINC000587344575    0.0900
     39 H39        -3.3435    2.4564   49.0907 H       1  ZINC000587344575    0.0900
     40 H40        -2.4704    3.6791   48.1110 H       1  ZINC000587344575    0.0600
     41 H41        -0.7147    3.5681   46.7602 H       1  ZINC000587344575    0.1400
     42 H42        -0.4251    2.7066   44.4777 H       1  ZINC000587344575    0.1400
     43 H43        -1.1262   -1.2813   45.9023 H       1  ZINC000587344575    0.1500
     44 H44         0.4009    3.3691   48.4332 H       1  ZINC000587344575    0.0600
     45 H45         0.6279    2.3290   49.8678 H       1  ZINC000587344575    0.1100
     46 H46        -1.3046    2.8390   54.4698 H       1  ZINC000587344575    0.1400
     47 H47        -0.3516    2.6510   56.7265 H       1  ZINC000587344575    0.1300
     48 H48         2.1058    0.3059   57.4764 H       1  ZINC000587344575    0.4000
     49 H49         3.6797    1.7920   59.4524 H       1  ZINC000587344575    0.0900
     50 H50         1.1204    0.2974   60.1820 H       1  ZINC000587344575    0.0600
     51 H51         2.2685    1.0153   61.3374 H       1  ZINC000587344575    0.0700
     52 H52         1.3426    2.0627   60.2356 H       1  ZINC000587344575    0.0600
     53 H53         2.9374   -1.1639   59.2844 H       1  ZINC000587344575    0.0600
     54 H54         4.4540   -0.4397   58.6985 H       1  ZINC000587344575    0.0600
     55 H55         4.0854   -0.4460   60.4398 H       1  ZINC000587344575    0.0700
@<TRIPOS>BOND
     1     1     2    1
     2     1    32    1
     3     1    33    1
     4     1    34    1
     5     2    25   ar
     6     2     3   ar
     7     3     4   ar
     8     3    35    1
     9     4     5    1
    10     4    23   ar
    11     5     6   am
    12     5    36    1
    13     6     7    2
    14     6     8    1
    15     8     9    1
    16     8    22    1
    17     8    10    1
    18    10    11    1
    19    10    37    1
    20    10    38    1
    21    11    12    1
    22    11    39    1
    23    11    40    1
    24    12    13    1
    25    12    22    1
    26    13    20   ar
    27    13    14   ar
    28    14    15   ar
    29    14    41    1
    30    15    16   ar
    31    15    42    1
    32    16    17    1
    33    16    19   ar
    34    17    18    3
    35    19    20   ar
    36    19    43    1
    37    20    21    1
    38    22    44    1
    39    22    45    1
    40    23    24   ar
    41    23    46    1
    42    24    25   ar
    43    24    47    1
    44    25    26    1
    45    26    27    2
    46    26    28   am
    47    28    29    1
    48    28    48    1
    49    29    30    1
    50    29    31    1
    51    29    49    1
    52    30    50    1
    53    30    51    1
    54    30    52    1
    55    31    53    1
    56    31    54    1
    57    31    55    1
@<TRIPOS>SUBSTRUCTURE
     1 ZINC000587344575        1 TEMP              0 ****  ****    0 ROOT


##########                                Name:    ZINC000821214121
##########                DOCK_Rotatable_Bonds:                  10
##########                         Heavy_Atoms:                  23
##########                    Molecular_Weight:             338.434
##########                DOCK_Rotatable_Bonds:                  10
##########                       Formal_Charge:          0.00999954
##########                     HBond_Acceptors:                   9
##########                        HBond_Donors:                   3
##########                         Heavy_Atoms:                  23
##########                          Grid_Score:          -31.470480
##########                     Grid_vdw_energy:          -28.482853
##########                      Grid_es_energy:           -2.987628
##########           Internal_energy_repulsive:           15.456981

@<TRIPOS>MOLECULE
ZINC000821214121
 45 46 1 0 0
SMALL
USER_CHARGES


@<TRIPOS>ATOM
      1 C1          2.9532    5.6177   52.8506 C.3     1  ZINC000821214121   -0.1500
      2 C2          1.6748    4.8188   53.1119 C.3     1  ZINC000821214121    0.0500
      3 N3          1.9077    3.4039   52.7928 N.3     1  ZINC000821214121   -0.5200
      4 C4          2.5647    2.7134   53.9107 C.3     1  ZINC000821214121    0.0600
      5 C5          1.5988    2.6253   55.0940 C.3     1  ZINC000821214121   -0.1200
      6 C6          2.1513    1.6459   56.1315 C.3     1  ZINC000821214121    0.0800
      7 O7          3.3608    2.1692   56.6840 O.3     1  ZINC000821214121   -0.5700
      8 C8          0.6535    2.7339   52.4244 C.3     1  ZINC000821214121    0.0400
      9 C9          0.4382    2.8530   50.9376 C.2     1  ZINC000821214121    0.5000
     10 O10         1.0712    3.6651   50.2962 O.2     1  ZINC000821214121   -0.4800
     11 N11        -0.4575    2.0573   50.3205 N.am    1  ZINC000821214121   -0.6300
     12 C12        -0.6554    2.1663   48.9452 C.2     1  ZINC000821214121    0.0800
     13 C13        -0.3402    1.2108   48.0256 C.2     1  ZINC000821214121   -0.1000
     14 C14         0.2665   -0.0917   48.3907 C.2     1  ZINC000821214121    0.2900
     15 N15        -0.3843   -1.1982   48.7010 N.2     1  ZINC000821214121   -0.3300
     16 N16         0.6015   -2.1616   48.9709 N.pl3   1  ZINC000821214121   -0.2900
     17 N17         1.7458   -1.5899   48.8103 N.2     1  ZINC000821214121    0.0200
     18 N18         1.5740   -0.3647   48.4608 N.2     1  ZINC000821214121   -0.2900
     19 C19        -0.6390    1.5672   46.7106 C.2     1  ZINC000821214121   -0.0500
     20 C20        -0.3693    0.6528   45.5434 C.3     1  ZINC000821214121   -0.1000
     21 C21        -1.1794    2.7720   46.5628 C.2     1  ZINC000821214121   -0.2400
     22 C22        -1.5872    3.3777   45.2445 C.3     1  ZINC000821214121   -0.0800
     23 S23        -1.3576    3.5551   48.1262 S.3     1  ZINC000821214121    0.2600
     24 H24         3.7800    5.1712   53.4032 H       1  ZINC000821214121    0.0700
     25 H25         3.1791    5.6035   51.7844 H       1  ZINC000821214121    0.0500
     26 H26         2.8115    6.6475   53.1784 H       1  ZINC000821214121    0.0600
     27 H27         1.3953    4.9134   54.1612 H       1  ZINC000821214121    0.0900
     28 H28         0.8707    5.2050   52.4855 H       1  ZINC000821214121    0.0400
     29 H29         2.8506    1.7086   53.5995 H       1  ZINC000821214121    0.0400
     30 H30         3.4542    3.2686   54.2083 H       1  ZINC000821214121    0.0800
     31 H31         1.4884    3.6105   55.5471 H       1  ZINC000821214121    0.0800
     32 H32         0.6275    2.2751   54.7449 H       1  ZINC000821214121    0.0700
     33 H33         1.4188    1.5073   56.9266 H       1  ZINC000821214121    0.0400
     34 H34         2.3549    0.6874   55.6539 H       1  ZINC000821214121    0.0500
     35 H35         3.7673    1.5994   57.3513 H       1  ZINC000821214121    0.3800
     36 H36         0.7094    1.6809   52.7002 H       1  ZINC000821214121    0.0700
     37 H37        -0.1775    3.2036   52.9506 H       1  ZINC000821214121    0.1200
     38 H38        -0.9647    1.4087   50.8335 H       1  ZINC000821214121    0.4200
     39 H39         0.4498   -3.0839   49.2299 H       1  ZINC000821214121    0.4700
     40 H40        -1.2421    0.0248   45.3647 H       1  ZINC000821214121    0.0700
     41 H41        -0.1628    1.2492   44.6548 H       1  ZINC000821214121    0.0700
     42 H42         0.4919    0.0231   45.7666 H       1  ZINC000821214121    0.0900
     43 H43        -2.6230    3.1158   45.0292 H       1  ZINC000821214121    0.0700
     44 H44        -1.4900    4.4621   45.2973 H       1  ZINC000821214121    0.0700
     45 H45        -0.9433    2.9933   44.4535 H       1  ZINC000821214121    0.0800
@<TRIPOS>BOND
     1     1     2    1
     2     1    24    1
     3     1    25    1
     4     1    26    1
     5     2     3    1
     6     2    27    1
     7     2    28    1
     8     3     4    1
     9     3     8    1
    10     4     5    1
    11     4    29    1
    12     4    30    1
    13     5     6    1
    14     5    31    1
    15     5    32    1
    16     6     7    1
    17     6    33    1
    18     6    34    1
    19     7    35    1
    20     8     9    1
    21     8    36    1
    22     8    37    1
    23     9    10    2
    24     9    11   am
    25    11    12    1
    26    11    38    1
    27    12    23    1
    28    12    13    2
    29    13    14    1
    30    13    19    1
    31    14    18    1
    32    14    15    2
    33    15    16    1
    34    16    17    1
    35    16    39    1
    36    17    18    2
    37    19    20    1
    38    19    21    2
    39    20    40    1
    40    20    41    1
    41    20    42    1
    42    21    22    1
    43    21    23    1
    44    22    43    1
    45    22    44    1
    46    22    45    1
@<TRIPOS>SUBSTRUCTURE
     1 ZINC000821214121        1 TEMP              0 ****  ****    0 ROOT


##########                                Name:    ZINC000444811358
##########                DOCK_Rotatable_Bonds:                  11
##########                         Heavy_Atoms:                  27
##########                    Molecular_Weight:             374.455
##########                DOCK_Rotatable_Bonds:                  11
##########                       Formal_Charge:          0.00999966
##########                     HBond_Acceptors:                   6
##########                        HBond_Donors:                   2
##########                         Heavy_Atoms:                  27
##########                          Grid_Score:          -31.443590
##########                     Grid_vdw_energy:          -30.415554
##########                      Grid_es_energy:           -1.028036
##########           Internal_energy_repulsive:           19.348917

@<TRIPOS>MOLECULE
ZINC000444811358
 54 55 1 0 0
SMALL
USER_CHARGES


@<TRIPOS>ATOM
      1 C1         -1.1817    0.1250   45.2241 C.3     1  ZINC000444811358   -0.1100
      2 C2         -1.5543    1.0119   46.3840 C.ar    1  ZINC000444811358   -0.1300
      3 C3         -1.8922    0.4505   47.6011 C.ar    1  ZINC000444811358   -0.0700
      4 C4         -2.2347    1.2606   48.6664 C.ar    1  ZINC000444811358   -0.1500
      5 C5         -2.2393    2.6410   48.5151 C.ar    1  ZINC000444811358    0.1700
      6 N6         -2.5855    3.4629   49.5931 N.am    1  ZINC000444811358   -0.6800
      7 C7         -1.6245    4.1028   50.2885 C.2     1  ZINC000444811358    0.5200
      8 O8         -0.4596    3.9661   49.9798 O.2     1  ZINC000444811358   -0.5000
      9 C9         -1.9974    4.9881   51.4497 C.3     1  ZINC000444811358    0.0200
     10 N10        -2.4765    4.1588   52.5635 N.3     1  ZINC000444811358   -0.5000
     11 C11        -1.6221    4.3227   53.7472 C.3     1  ZINC000444811358    0.0200
     12 C12        -0.3516    3.4869   53.5788 C.3     1  ZINC000444811358    0.1100
     13 H13        -0.5463    2.6646   52.8904 H       1  ZINC000444811358    0.1200
     14 O14         0.6934    4.3090   53.0556 O.3     1  ZINC000444811358   -0.5400
     15 C15         0.0731    2.9251   54.9372 C.3     1  ZINC000444811358    0.0300
     16 O16         1.2408    2.1176   54.7747 O.3     1  ZINC000444811358   -0.3000
     17 C17         1.7650    1.5581   55.8967 C.ar    1  ZINC000444811358    0.1300
     18 C18         2.9285    0.8063   55.8199 C.ar    1  ZINC000444811358   -0.2100
     19 C19         3.4596    0.2391   56.9620 C.ar    1  ZINC000444811358   -0.0800
     20 C20         2.8325    0.4198   58.1809 C.ar    1  ZINC000444811358   -0.1600
     21 C21         1.6727    1.1682   58.2601 C.ar    1  ZINC000444811358   -0.0800
     22 C22         1.1408    1.7427   57.1219 C.ar    1  ZINC000444811358   -0.1500
     23 C23        -3.8786    4.4618   52.8803 C.3     1  ZINC000444811358    0.0700
     24 C24        -4.4696    3.3249   53.7166 C.3     1  ZINC000444811358   -0.1400
     25 C25        -3.9516    5.7688   53.6724 C.3     1  ZINC000444811358   -0.1900
     26 C26        -1.8994    3.2041   47.2922 C.ar    1  ZINC000444811358   -0.1500
     27 C27        -1.5521    2.3887   46.2303 C.ar    1  ZINC000444811358    0.1200
     28 F28        -1.2211    2.9347   45.0398 F       1  ZINC000444811358   -0.1300
     29 H29        -0.1073   -0.0577   45.2369 H       1  ZINC000444811358    0.0700
     30 H30        -1.7126   -0.8234   45.3067 H       1  ZINC000444811358    0.0700
     31 H31        -1.4559    0.6145   44.2896 H       1  ZINC000444811358    0.0700
     32 H32        -1.8887   -0.6230   47.7192 H       1  ZINC000444811358    0.1400
     33 H33        -2.4991    0.8205   49.6165 H       1  ZINC000444811358    0.1300
     34 H34        -3.5171    3.5723   49.8401 H       1  ZINC000444811358    0.4100
     35 H35        -1.1234    5.5558   51.7691 H       1  ZINC000444811358    0.1300
     36 H36        -2.7856    5.6760   51.1436 H       1  ZINC000444811358    0.0700
     37 H37        -1.3538    5.3732   53.8591 H       1  ZINC000444811358    0.0500
     38 H38        -2.1616    3.9890   54.6337 H       1  ZINC000444811358    0.1000
     39 H39         0.4436    4.8074   52.2654 H       1  ZINC000444811358    0.3700
     40 H40         0.2920    3.7476   55.6181 H       1  ZINC000444811358    0.0600
     41 H41        -0.7340    2.3185   55.3479 H       1  ZINC000444811358    0.0700
     42 H42         3.4183    0.6644   54.8678 H       1  ZINC000444811358    0.1300
     43 H43         4.3653   -0.3462   56.9027 H       1  ZINC000444811358    0.1200
     44 H44         3.2491   -0.0248   59.0727 H       1  ZINC000444811358    0.1200
     45 H45         1.1845    1.3076   59.2134 H       1  ZINC000444811358    0.1300
     46 H46         0.2348    2.3272   57.1842 H       1  ZINC000444811358    0.1300
     47 H47        -4.4459    4.5653   51.9553 H       1  ZINC000444811358    0.0900
     48 H48        -3.9903    3.3068   54.6954 H       1  ZINC000444811358    0.0500
     49 H49        -5.5410    3.4833   53.8395 H       1  ZINC000444811358    0.0600
     50 H50        -4.2985    2.3747   53.2106 H       1  ZINC000444811358    0.0700
     51 H51        -3.5306    6.5786   53.0767 H       1  ZINC000444811358    0.0500
     52 H52        -4.9919    5.9934   53.9074 H       1  ZINC000444811358    0.0700
     53 H53        -3.3844    5.6653   54.5973 H       1  ZINC000444811358    0.0600
     54 H54        -1.9024    4.2773   47.1715 H       1  ZINC000444811358    0.1500
@<TRIPOS>BOND
     1     1     2    1
     2     1    29    1
     3     1    30    1
     4     1    31    1
     5     2    27   ar
     6     2     3   ar
     7     3     4   ar
     8     3    32    1
     9     4     5   ar
    10     4    33    1
    11     5     6    1
    12     5    26   ar
    13     6     7   am
    14     6    34    1
    15     7     8    2
    16     7     9    1
    17     9    10    1
    18     9    35    1
    19     9    36    1
    20    10    11    1
    21    10    23    1
    22    11    12    1
    23    11    37    1
    24    11    38    1
    25    12    13    1
    26    12    14    1
    27    12    15    1
    28    14    39    1
    29    15    16    1
    30    15    40    1
    31    15    41    1
    32    16    17    1
    33    17    22   ar
    34    17    18   ar
    35    18    19   ar
    36    18    42    1
    37    19    20   ar
    38    19    43    1
    39    20    21   ar
    40    20    44    1
    41    21    22   ar
    42    21    45    1
    43    22    46    1
    44    23    24    1
    45    23    25    1
    46    23    47    1
    47    24    48    1
    48    24    49    1
    49    24    50    1
    50    25    51    1
    51    25    52    1
    52    25    53    1
    53    26    27   ar
    54    26    54    1
    55    27    28    1
@<TRIPOS>SUBSTRUCTURE
     1 ZINC000444811358        1 TEMP              0 ****  ****    0 ROOT


##########                                Name:    ZINC000892389374
##########                DOCK_Rotatable_Bonds:                   6
##########                         Heavy_Atoms:                  25
##########                    Molecular_Weight:             371.383
##########                DOCK_Rotatable_Bonds:                   6
##########                       Formal_Charge:          -0.0199998
##########                     HBond_Acceptors:                   9
##########                        HBond_Donors:                   1
##########                         Heavy_Atoms:                  25
##########                          Grid_Score:          -31.435194
##########                     Grid_vdw_energy:          -29.052162
##########                      Grid_es_energy:           -2.383032
##########           Internal_energy_repulsive:            4.929327

@<TRIPOS>MOLECULE
ZINC000892389374
 41 43 1 0 0
SMALL
USER_CHARGES


@<TRIPOS>ATOM
      1 C1        -12.8762    0.0761   62.1980 C.3     1  ZINC000892389374   -0.1000
      2 C2        -11.6726    0.0831   63.1051 C.ar    1  ZINC000892389374   -0.1800
      3 C3        -11.7613    0.6427   64.3648 C.ar    1  ZINC000892389374   -0.0400
      4 C4        -10.6602    0.6507   65.1995 C.ar    1  ZINC000892389374   -0.2100
      5 C5         -9.4599    0.0961   64.7740 C.ar    1  ZINC000892389374    0.2200
      6 N6         -8.3453    0.1048   65.6203 N.am    1  ZINC000892389374   -0.5700
      7 C7         -7.1927    1.0117   65.5075 C.3     1  ZINC000892389374    0.0600
      8 C8         -6.2782    0.5898   66.6737 C.3     1  ZINC000892389374    0.0400
      9 O9         -7.0037   -0.4991   67.3147 O.3     1  ZINC000892389374   -0.3200
     10 C10        -8.1567   -0.7079   66.6689 C.2     1  ZINC000892389374    0.6400
     11 O11        -8.9558   -1.5621   66.9980 O.2     1  ZINC000892389374   -0.5000
     12 C12        -9.3672   -0.4670   63.5093 C.ar    1  ZINC000892389374   -0.2300
     13 C13       -10.4762   -0.4788   62.6753 C.ar    1  ZINC000892389374    0.2400
     14 N14       -10.3872   -1.0445   61.4015 N.pl3   1  ZINC000892389374   -0.7400
     15 C15       -10.1300   -2.4791   61.2534 C.3     1  ZINC000892389374    0.2000
     16 C16       -10.8186   -2.9876   60.0132 C.2     1  ZINC000892389374   -0.2400
     17 C17       -10.6743   -4.2027   59.4759 C.2     1  ZINC000892389374    0.0600
     18 N18       -11.3872   -4.4068   58.3866 N.2     1  ZINC000892389374   -0.4500
     19 C19       -12.1249   -3.4314   57.9750 C.2     1  ZINC000892389374    0.0200
     20 C20       -13.0071   -3.4730   56.7539 C.3     1  ZINC000892389374   -0.0900
     21 C21       -14.3265   -4.1654   57.1014 C.3     1  ZINC000892389374    0.4600
     22 F22       -15.1863   -4.1107   55.9992 F       1  ZINC000892389374   -0.1800
     23 F23       -14.0786   -5.5015   57.4336 F       1  ZINC000892389374   -0.1800
     24 F24       -14.9210   -3.5170   58.1892 F       1  ZINC000892389374   -0.1700
     25 S25       -11.9622   -2.0878   59.0197 S.3     1  ZINC000892389374    0.1900
     26 H26       -13.4532   -0.8331   62.3670 H       1  ZINC000892389374    0.0700
     27 H27       -13.4975    0.9457   62.4120 H       1  ZINC000892389374    0.0700
     28 H28       -12.5483    0.1105   61.1591 H       1  ZINC000892389374    0.0600
     29 H29       -12.6931    1.0753   64.6979 H       1  ZINC000892389374    0.1300
     30 H30       -10.7327    1.0892   66.1840 H       1  ZINC000892389374    0.1200
     31 H31        -6.6859    0.8698   64.5530 H       1  ZINC000892389374    0.1000
     32 H32        -7.5084    2.0484   65.6242 H       1  ZINC000892389374    0.1000
     33 H33        -5.3169    0.2395   66.2981 H       1  ZINC000892389374    0.1100
     34 H34        -6.1392    1.4176   67.3690 H       1  ZINC000892389374    0.1100
     35 H35        -8.4349   -0.8986   63.1761 H       1  ZINC000892389374    0.1600
     36 H36       -10.4957   -0.4875   60.6147 H       1  ZINC000892389374    0.4000
     37 H37        -9.0566   -2.6489   61.1686 H       1  ZINC000892389374    0.0900
     38 H38       -10.5138   -3.0089   62.1253 H       1  ZINC000892389374    0.0800
     39 H39       -10.0264   -4.9557   59.8998 H       1  ZINC000892389374    0.1800
     40 H40       -13.2083   -2.4562   56.4164 H       1  ZINC000892389374    0.1300
     41 H41       -12.5042   -4.0262   55.9608 H       1  ZINC000892389374    0.1400
@<TRIPOS>BOND
     1     1     2    1
     2     1    26    1
     3     1    27    1
     4     1    28    1
     5     2    13   ar
     6     2     3   ar
     7     3     4   ar
     8     3    29    1
     9     4     5   ar
    10     4    30    1
    11     5     6    1
    12     5    12   ar
    13     6    10   am
    14     6     7    1
    15     7     8    1
    16     7    31    1
    17     7    32    1
    18     8     9    1
    19     8    33    1
    20     8    34    1
    21     9    10    1
    22    10    11    2
    23    12    13   ar
    24    12    35    1
    25    13    14    1
    26    14    15    1
    27    14    36    1
    28    15    16    1
    29    15    37    1
    30    15    38    1
    31    16    25    1
    32    16    17    2
    33    17    18    1
    34    17    39    1
    35    18    19    2
    36    19    20    1
    37    19    25    1
    38    20    21    1
    39    20    40    1
    40    20    41    1
    41    21    22    1
    42    21    23    1
    43    21    24    1
@<TRIPOS>SUBSTRUCTURE
     1 ZINC000892389374        1 TEMP              0 ****  ****    0 ROOT


##########                                Name:    ZINC000654382142
##########                DOCK_Rotatable_Bonds:                  14
##########                         Heavy_Atoms:                  24
##########                    Molecular_Weight:             379.401
##########                DOCK_Rotatable_Bonds:                  14
##########                       Formal_Charge:          0.00999933
##########                     HBond_Acceptors:                  12
##########                        HBond_Donors:                   2
##########                         Heavy_Atoms:                  24
##########                          Grid_Score:          -31.429869
##########                     Grid_vdw_energy:          -29.261719
##########                      Grid_es_energy:           -2.168149
##########           Internal_energy_repulsive:           14.997596

@<TRIPOS>MOLECULE
ZINC000654382142
 48 47 1 0 0
SMALL
USER_CHARGES


@<TRIPOS>ATOM
      1 C1         -6.8072    3.4543   54.7595 C.3     1  ZINC000654382142    0.0300
      2 O2         -6.3155    4.1860   53.6347 O.3     1  ZINC000654382142   -0.3700
      3 C3         -4.9462    4.5780   53.7498 C.3     1  ZINC000654382142    0.0400
      4 C4         -4.0554    3.3345   53.7187 C.3     1  ZINC000654382142    0.1400
      5 N5         -2.6665    3.7346   53.4800 N.am    1  ZINC000654382142   -0.6100
      6 C6         -1.7884    4.0432   54.6113 C.3     1  ZINC000654382142    0.0800
      7 C7         -1.0448    2.7765   55.0400 C.3     1  ZINC000654382142    0.0500
      8 H8         -0.5395    2.3422   54.1774 H       1  ZINC000654382142    0.1400
      9 O9         -1.9778    1.8331   55.5706 O.3     1  ZINC000654382142   -0.5200
     10 C10        -0.0115    3.1298   56.1118 C.3     1  ZINC000654382142    0.4200
     11 F11        -0.6577    3.7068   57.2103 F       1  ZINC000654382142   -0.1800
     12 F12         0.6535    1.9684   56.5191 F       1  ZINC000654382142   -0.1700
     13 F13         0.9142    4.0373   55.5859 F       1  ZINC000654382142   -0.1800
     14 C14        -2.1965    3.8188   52.2197 C.2     1  ZINC000654382142    0.7100
     15 O15        -1.0433    4.1494   52.0216 O.2     1  ZINC000654382142   -0.5600
     16 N16        -3.0048    3.5365   51.1788 N.am    1  ZINC000654382142   -0.7500
     17 C17        -2.4944    3.6297   49.8087 C.3     1  ZINC000654382142    0.1400
     18 C18        -2.0036    2.2542   49.3526 C.3     1  ZINC000654382142   -0.1600
     19 C19        -0.9677    2.4256   48.2398 C.3     1  ZINC000654382142    0.1200
     20 N20        -1.2649    1.4947   47.1484 N.am    1  ZINC000654382142   -1.0000
     21 C21        -2.0937    1.9284   46.0209 C.3     1  ZINC000654382142    0.0900
     22 S22        -0.6639   -0.0479   47.1891 S.o2    1  ZINC000654382142    2.6100
     23 C23         1.1366    0.1688   47.2312 C.3     1  ZINC000654382142   -0.6800
     24 O24        -1.1319   -0.5738   48.4235 O.2     1  ZINC000654382142   -0.9500
     25 O25        -1.0690   -0.6147   45.9506 O.2     1  ZINC000654382142   -0.9500
     26 H26        -7.8527    3.1939   54.5948 H       1  ZINC000654382142    0.0900
     27 H27        -6.2213    2.5437   54.8848 H       1  ZINC000654382142    0.0400
     28 H28        -6.7224    4.0673   55.6569 H       1  ZINC000654382142    0.0400
     29 H29        -4.6847    5.2331   52.9189 H       1  ZINC000654382142    0.0500
     30 H30        -4.7978    5.1078   54.6907 H       1  ZINC000654382142    0.0600
     31 H31        -4.1245    2.8141   54.6739 H       1  ZINC000654382142    0.0900
     32 H32        -4.3851    2.6713   52.9189 H       1  ZINC000654382142    0.1000
     33 H33        -1.0674    4.8048   54.3144 H       1  ZINC000654382142    0.1000
     34 H34        -2.3857    4.4134   55.4445 H       1  ZINC000654382142    0.1000
     35 H35        -1.5735    1.0103   55.8781 H       1  ZINC000654382142    0.3900
     36 H36        -3.9244    3.2715   51.3368 H       1  ZINC000654382142    0.3900
     37 H37        -3.2910    3.9692   49.1466 H       1  ZINC000654382142    0.0700
     38 H38        -1.6679    4.3396   49.7764 H       1  ZINC000654382142    0.0700
     39 H39        -1.5490    1.7330   50.1950 H       1  ZINC000654382142    0.0700
     40 H40        -2.8465    1.6735   48.9780 H       1  ZINC000654382142    0.0800
     41 H41        -1.0032    3.4485   47.8647 H       1  ZINC000654382142    0.0900
     42 H42         0.0270    2.2176   48.6341 H       1  ZINC000654382142    0.1000
     43 H43        -1.4573    2.3509   45.2434 H       1  ZINC000654382142    0.0600
     44 H44        -2.6381    1.0733   45.6201 H       1  ZINC000654382142    0.0700
     45 H45        -2.8025    2.6837   46.3604 H       1  ZINC000654382142    0.0700
     46 H46         1.4135    0.7370   48.1193 H       1  ZINC000654382142    0.1300
     47 H47         1.6196   -0.8079   47.2596 H       1  ZINC000654382142    0.1300
     48 H48         1.4587    0.7077   46.3401 H       1  ZINC000654382142    0.1300
@<TRIPOS>BOND
     1     1     2    1
     2     1    26    1
     3     1    27    1
     4     1    28    1
     5     2     3    1
     6     3     4    1
     7     3    29    1
     8     3    30    1
     9     4     5    1
    10     4    31    1
    11     4    32    1
    12     5     6    1
    13     5    14   am
    14     6     7    1
    15     6    33    1
    16     6    34    1
    17     7     8    1
    18     7     9    1
    19     7    10    1
    20     9    35    1
    21    10    11    1
    22    10    12    1
    23    10    13    1
    24    14    15    2
    25    14    16   am
    26    16    17    1
    27    16    36    1
    28    17    18    1
    29    17    37    1
    30    17    38    1
    31    18    19    1
    32    18    39    1
    33    18    40    1
    34    19    20    1
    35    19    41    1
    36    19    42    1
    37    20    21    1
    38    20    22   am
    39    21    43    1
    40    21    44    1
    41    21    45    1
    42    22    23    1
    43    22    24    2
    44    22    25    2
    45    23    46    1
    46    23    47    1
    47    23    48    1
@<TRIPOS>SUBSTRUCTURE
     1 ZINC000654382142        1 TEMP              0 ****  ****    0 ROOT


##########                                Name:    ZINC000937331732
##########                DOCK_Rotatable_Bonds:                   6
##########                         Heavy_Atoms:                  24
##########                    Molecular_Weight:              333.35
##########                DOCK_Rotatable_Bonds:                   6
##########                       Formal_Charge:          -0.0299999
##########                     HBond_Acceptors:                  10
##########                        HBond_Donors:                   1
##########                         Heavy_Atoms:                  24
##########                          Grid_Score:          -31.418339
##########                     Grid_vdw_energy:          -29.361351
##########                      Grid_es_energy:           -2.056988
##########           Internal_energy_repulsive:           34.199165

@<TRIPOS>MOLECULE
ZINC000937331732
 43 45 1 0 0
SMALL
USER_CHARGES


@<TRIPOS>ATOM
      1 C1          0.1572    2.5714   49.5911 C.3     1  ZINC000937331732    0.0600
      2 N2         -1.1912    2.9317   50.0367 N.am    1  ZINC000937331732   -0.6100
      3 C3         -2.2232    2.0967   49.8045 C.2     1  ZINC000937331732    0.5000
      4 O4         -3.3391    2.3941   50.1747 O.2     1  ZINC000937331732   -0.5200
      5 C5         -1.9906    0.7931   49.0848 C.3     1  ZINC000937331732    0.1500
      6 N6         -1.8104    1.0507   47.6540 N.am    1  ZINC000937331732   -0.4400
      7 N7         -2.5971    1.8926   46.8557 N.2     1  ZINC000937331732   -0.2800
      8 C8         -2.1274    1.8593   45.6505 C.2     1  ZINC000937331732    0.2600
      9 N9         -1.0440    1.0155   45.6198 N.am    1  ZINC000937331732   -0.5600
     10 C10        -0.2314    0.7055   44.4409 C.3     1  ZINC000937331732    0.1000
     11 C11        -0.8526    0.5259   46.8612 C.2     1  ZINC000937331732    0.6500
     12 O12         0.0195   -0.2529   47.2028 O.2     1  ZINC000937331732   -0.5500
     13 C13        -1.4176    4.1997   50.7348 C.3     1  ZINC000937331732    0.1300
     14 H14        -0.4772    4.7314   50.8803 H       1  ZINC000937331732    0.1200
     15 C15        -2.4317    5.0804   49.9581 C.3     1  ZINC000937331732   -0.1500
     16 C16        -3.0261    5.9473   51.0962 C.3     1  ZINC000937331732    0.1000
     17 N17        -3.1116    5.0408   52.2556 N.am    1  ZINC000937331732   -0.6000
     18 C18        -3.9520    5.1787   53.3002 C.2     1  ZINC000937331732    0.6200
     19 O19        -4.7276    6.1145   53.3372 O.2     1  ZINC000937331732   -0.5400
     20 C20        -3.9307    4.1952   54.3982 C.2     1  ZINC000937331732    0.1400
     21 N21        -4.6958    4.2182   55.4688 N.2     1  ZINC000937331732   -0.4400
     22 C22        -4.3985    3.1740   56.2389 C.2     1  ZINC000937331732   -0.0300
     23 C23        -3.4123    2.4660   55.6358 C.2     1  ZINC000937331732   -0.0200
     24 N24        -3.1173    3.0998   54.4762 N.pl3   1  ZINC000937331732   -0.5200
     25 C25        -2.1245    3.9605   52.0856 C.3     1  ZINC000937331732    0.1000
     26 H26         0.3182    2.9467   48.5805 H       1  ZINC000937331732    0.0700
     27 H27         0.8923    3.0129   50.2640 H       1  ZINC000937331732    0.0800
     28 H28         0.2641    1.4867   49.5973 H       1  ZINC000937331732    0.0800
     29 H29        -1.0969    0.3127   49.4829 H       1  ZINC000937331732    0.1300
     30 H30        -2.8503    0.1392   49.2308 H       1  ZINC000937331732    0.1300
     31 H31        -2.5226    2.4055   44.8066 H       1  ZINC000937331732    0.2300
     32 H32        -0.6182    1.2501   43.5796 H       1  ZINC000937331732    0.1000
     33 H33         0.8017    1.0012   44.6238 H       1  ZINC000937331732    0.0800
     34 H34        -0.2731   -0.3654   44.2422 H       1  ZINC000937331732    0.0800
     35 H35        -1.9247    5.7004   49.2188 H       1  ZINC000937331732    0.0900
     36 H36        -3.2025    4.4683   49.4899 H       1  ZINC000937331732    0.0800
     37 H37        -2.3664    6.7861   51.3181 H       1  ZINC000937331732    0.0800
     38 H38        -4.0179    6.3060   50.8212 H       1  ZINC000937331732    0.1100
     39 H39        -4.8637    2.9321   57.1830 H       1  ZINC000937331732    0.1800
     40 H40        -2.9508    1.5637   56.0087 H       1  ZINC000937331732    0.1900
     41 H41        -2.4501    2.8301   53.8258 H       1  ZINC000937331732    0.4300
     42 H42        -2.6303    2.9951   52.0710 H       1  ZINC000937331732    0.0800
     43 H43        -1.3996    3.9893   52.8992 H       1  ZINC000937331732    0.0800
@<TRIPOS>BOND
     1     1     2    1
     2     1    26    1
     3     1    27    1
     4     1    28    1
     5     2     3   am
     6     2    13    1
     7     3     4    2
     8     3     5    1
     9     5     6    1
    10     5    29    1
    11     5    30    1
    12     6    11   am
    13     6     7    1
    14     7     8    2
    15     8     9    1
    16     8    31    1
    17     9    10    1
    18     9    11   am
    19    10    32    1
    20    10    33    1
    21    10    34    1
    22    11    12    2
    23    13    14    1
    24    13    25    1
    25    13    15    1
    26    15    16    1
    27    15    35    1
    28    15    36    1
    29    16    17    1
    30    16    37    1
    31    16    38    1
    32    17    18   am
    33    17    25    1
    34    18    19    2
    35    18    20    1
    36    20    24    1
    37    20    21    2
    38    21    22    1
    39    22    23    2
    40    22    39    1
    41    23    24    1
    42    23    40    1
    43    24    41    1
    44    25    42    1
    45    25    43    1
@<TRIPOS>SUBSTRUCTURE
     1 ZINC000937331732        1 TEMP              0 ****  ****    0 ROOT


##########                                Name:    ZINC000458730620
##########                DOCK_Rotatable_Bonds:                   9
##########                         Heavy_Atoms:                  25
##########                    Molecular_Weight:              375.44
##########                DOCK_Rotatable_Bonds:                   9
##########                       Formal_Charge:        -1.86265e-07
##########                     HBond_Acceptors:                   9
##########                        HBond_Donors:                   3
##########                         Heavy_Atoms:                  25
##########                          Grid_Score:          -31.412813
##########                     Grid_vdw_energy:          -30.118753
##########                      Grid_es_energy:           -1.294060
##########           Internal_energy_repulsive:           40.503098

@<TRIPOS>MOLECULE
ZINC000458730620
 48 49 1 0 0
SMALL
USER_CHARGES


@<TRIPOS>ATOM
      1 C1         -3.9626    6.7860   54.4046 C.3     1  ZINC000458730620   -0.1600
      2 C2         -4.3564    5.3275   54.1622 C.3     1  ZINC000458730620    0.2000
      3 C3         -5.7018    5.0443   54.8336 C.3     1  ZINC000458730620   -0.1600
      4 N4         -4.4689    5.0849   52.7218 N.am    1  ZINC000458730620   -0.7400
      5 C5         -3.3729    5.1493   51.9400 C.2     1  ZINC000458730620    0.7100
      6 O6         -2.2910    5.4103   52.4300 O.2     1  ZINC000458730620   -0.5800
      7 N7         -3.4760    4.9246   50.6152 N.am    1  ZINC000458730620   -0.7500
      8 C8         -2.2844    4.9929   49.7657 C.3     1  ZINC000458730620    0.1300
      9 C9         -1.9524    3.5950   49.2395 C.3     1  ZINC000458730620    0.1000
     10 N10        -1.6640    3.6691   47.8050 N.am    1  ZINC000458730620   -1.1100
     11 S11        -1.7815    2.3102   46.8657 S.o2    1  ZINC000458730620    2.7000
     12 O12        -3.0806    1.7794   47.0889 O.2     1  ZINC000458730620   -0.9400
     13 O13        -1.2994    2.6696   45.5782 O.2     1  ZINC000458730620   -0.9400
     14 C14        -0.6439    1.1299   47.5114 C.ar    1  ZINC000458730620   -0.7300
     15 C15        -1.0948   -0.1089   47.9262 C.ar    1  ZINC000458730620    0.0400
     16 C16        -0.2033   -1.0360   48.4325 C.ar    1  ZINC000458730620   -0.1800
     17 C17         1.1425   -0.7246   48.5246 C.ar    1  ZINC000458730620    0.1900
     18 F18         2.0136   -1.6312   49.0192 F       1  ZINC000458730620   -0.1200
     19 C19         1.5954    0.5160   48.1095 C.ar    1  ZINC000458730620   -0.2100
     20 C20         0.7027    1.4417   47.5978 C.ar    1  ZINC000458730620    0.2200
     21 F21         1.1433    2.6527   47.1923 F       1  ZINC000458730620   -0.1100
     22 C22        -3.2875    4.4058   54.7528 C.3     1  ZINC000458730620   -0.1100
     23 C23        -3.7223    3.7139   56.0555 C.3     1  ZINC000458730620   -0.1400
     24 C24        -3.0209    2.4516   55.5267 C.3     1  ZINC000458730620   -0.1400
     25 C25        -3.2577    3.0078   54.1127 C.3     1  ZINC000458730620   -0.1400
     26 H26        -3.9391    6.9827   55.4764 H       1  ZINC000458730620    0.0600
     27 H27        -2.9762    6.9714   53.9795 H       1  ZINC000458730620    0.0500
     28 H28        -4.6918    7.4428   53.9305 H       1  ZINC000458730620    0.0800
     29 H29        -6.4632    5.7010   54.4129 H       1  ZINC000458730620    0.0800
     30 H30        -5.9823    4.0053   54.6610 H       1  ZINC000458730620    0.0500
     31 H31        -5.6181    5.2248   55.9054 H       1  ZINC000458730620    0.0600
     32 H32        -5.3320    4.8779   52.3308 H       1  ZINC000458730620    0.3900
     33 H33        -4.3392    4.7176   50.2241 H       1  ZINC000458730620    0.4000
     34 H34        -2.4745    5.6614   48.9261 H       1  ZINC000458730620    0.0800
     35 H35        -1.4441    5.3708   50.3481 H       1  ZINC000458730620    0.0800
     36 H36        -1.0806    3.2063   49.7657 H       1  ZINC000458730620    0.0900
     37 H37        -2.8021    2.9330   49.4056 H       1  ZINC000458730620    0.0700
     38 H38        -1.4045    4.5139   47.4055 H       1  ZINC000458730620    0.4300
     39 H39        -2.1445   -0.3525   47.8550 H       1  ZINC000458730620    0.1700
     40 H40        -0.5569   -2.0036   48.7566 H       1  ZINC000458730620    0.1600
     41 H41         2.6451    0.7599   48.1811 H       1  ZINC000458730620    0.1600
     42 H42        -2.3076    4.8789   54.8142 H       1  ZINC000458730620    0.1100
     43 H43        -3.2560    4.1309   56.9481 H       1  ZINC000458730620    0.0700
     44 H44        -4.8025    3.6049   56.1526 H       1  ZINC000458730620    0.0800
     45 H45        -1.9678    2.3899   55.8009 H       1  ZINC000458730620    0.0800
     46 H46        -3.5672    1.5306   55.7307 H       1  ZINC000458730620    0.0700
     47 H47        -4.2109    2.7059   53.6787 H       1  ZINC000458730620    0.0800
     48 H48        -2.4163    2.8549   53.4369 H       1  ZINC000458730620    0.0700
@<TRIPOS>BOND
     1     1     2    1
     2     1    26    1
     3     1    27    1
     4     1    28    1
     5     2     3    1
     6     2     4    1
     7     2    22    1
     8     3    29    1
     9     3    30    1
    10     3    31    1
    11     4     5   am
    12     4    32    1
    13     5     6    2
    14     5     7   am
    15     7     8    1
    16     7    33    1
    17     8     9    1
    18     8    34    1
    19     8    35    1
    20     9    10    1
    21     9    36    1
    22     9    37    1
    23    10    11   am
    24    10    38    1
    25    11    12    2
    26    11    13    2
    27    11    14    1
    28    14    20   ar
    29    14    15   ar
    30    15    16   ar
    31    15    39    1
    32    16    17   ar
    33    16    40    1
    34    17    18    1
    35    17    19   ar
    36    19    20   ar
    37    19    41    1
    38    20    21    1
    39    22    25    1
    40    22    23    1
    41    22    42    1
    42    23    24    1
    43    23    43    1
    44    23    44    1
    45    24    25    1
    46    24    45    1
    47    24    46    1
    48    25    47    1
    49    25    48    1
@<TRIPOS>SUBSTRUCTURE
     1 ZINC000458730620        1 TEMP              0 ****  ****    0 ROOT


##########                                Name:    ZINC000581017854
##########                DOCK_Rotatable_Bonds:                   6
##########                         Heavy_Atoms:                  24
##########                    Molecular_Weight:             330.334
##########                DOCK_Rotatable_Bonds:                   6
##########                       Formal_Charge:           0.0099998
##########                     HBond_Acceptors:                   6
##########                        HBond_Donors:                   2
##########                         Heavy_Atoms:                  24
##########                          Grid_Score:          -31.397869
##########                     Grid_vdw_energy:          -30.150927
##########                      Grid_es_energy:           -1.246942
##########           Internal_energy_repulsive:            9.564908

@<TRIPOS>MOLECULE
ZINC000581017854
 40 42 1 0 0
SMALL
USER_CHARGES


@<TRIPOS>ATOM
      1 C1         -1.7792    5.2005   49.8188 C.3     1  ZINC000581017854   -0.1600
      2 C2         -2.5570    4.0057   50.3741 C.3     1  ZINC000581017854    0.1500
      3 H3         -3.6247    4.1656   50.2237 H       1  ZINC000581017854    0.1100
      4 C4         -2.1244    2.7321   49.6451 C.3     1  ZINC000581017854    0.0500
      5 O5         -2.4612    2.8381   48.2604 O.3     1  ZINC000581017854   -0.3100
      6 C6         -2.0935    1.8069   47.4552 C.ar    1  ZINC000581017854    0.1600
      7 C7         -2.3466    1.8653   46.0925 C.ar    1  ZINC000581017854   -0.2200
      8 C8         -1.9723    0.8162   45.2748 C.ar    1  ZINC000581017854   -0.0500
      9 C9         -1.3461   -0.2922   45.8129 C.ar    1  ZINC000581017854   -0.1900
     10 C10        -1.0922   -0.3542   47.1732 C.ar    1  ZINC000581017854    0.1400
     11 F11        -0.4801   -1.4385   47.6973 F       1  ZINC000581017854   -0.1300
     12 C12        -1.4595    0.6970   47.9942 C.ar    1  ZINC000581017854   -0.1900
     13 N13        -2.2812    3.8663   51.8062 N.am    1  ZINC000581017854   -0.7300
     14 C14        -3.1867    3.2784   52.6128 C.2     1  ZINC000581017854    0.5900
     15 O15        -4.2340    2.8645   52.1519 O.2     1  ZINC000581017854   -0.5400
     16 C16        -2.9093    3.1370   54.0485 C.2     1  ZINC000581017854   -0.2200
     17 C17        -3.8279    3.0338   55.0508 C.2     1  ZINC000581017854    0.1100
     18 N18        -3.1943    2.9176   56.2431 N.pl3   1  ZINC000581017854   -0.5700
     19 C19        -1.8262    2.9405   56.0657 C.ar    1  ZINC000581017854    0.1100
     20 C20        -0.7513    2.8575   56.9442 C.ar    1  ZINC000581017854   -0.1600
     21 C21         0.5396    2.9110   56.4592 C.ar    1  ZINC000581017854    0.1200
     22 F22         1.5808    2.8295   57.3162 F       1  ZINC000581017854   -0.1400
     23 C23         0.7778    3.0473   55.0974 C.ar    1  ZINC000581017854   -0.1700
     24 C24        -0.2753    3.1310   54.2131 C.ar    1  ZINC000581017854   -0.0300
     25 C25        -1.5824    3.0723   54.6891 C.ar    1  ZINC000581017854   -0.0700
     26 H26        -1.9844    5.3042   48.7533 H       1  ZINC000581017854    0.0700
     27 H27        -2.0874    6.1078   50.3383 H       1  ZINC000581017854    0.0700
     28 H28        -0.7115    5.0406   49.9693 H       1  ZINC000581017854    0.0700
     29 H29        -1.0469    2.6027   49.7480 H       1  ZINC000581017854    0.0700
     30 H30        -2.6366    1.8732   50.0788 H       1  ZINC000581017854    0.0800
     31 H31        -2.8364    2.7305   45.6708 H       1  ZINC000581017854    0.1400
     32 H32        -2.1696    0.8622   44.2140 H       1  ZINC000581017854    0.1400
     33 H33        -1.0547   -1.1112   45.1720 H       1  ZINC000581017854    0.1400
     34 H34        -1.2615    0.6494   49.0548 H       1  ZINC000581017854    0.1400
     35 H35        -1.4468    4.1973   52.1738 H       1  ZINC000581017854    0.4000
     36 H36        -4.8992    3.0432   54.9150 H       1  ZINC000581017854    0.1800
     37 H37        -3.6398    2.8311   57.1005 H       1  ZINC000581017854    0.4200
     38 H38        -0.9265    2.7517   58.0046 H       1  ZINC000581017854    0.1400
     39 H39         1.7927    3.0884   54.7305 H       1  ZINC000581017854    0.1400
     40 H40        -0.0877    3.2374   53.1548 H       1  ZINC000581017854    0.1500
@<TRIPOS>BOND
     1     1     2    1
     2     1    26    1
     3     1    27    1
     4     1    28    1
     5     2     3    1
     6     2     4    1
     7     2    13    1
     8     4     5    1
     9     4    29    1
    10     4    30    1
    11     5     6    1
    12     6    12   ar
    13     6     7   ar
    14     7     8   ar
    15     7    31    1
    16     8     9   ar
    17     8    32    1
    18     9    10   ar
    19     9    33    1
    20    10    11    1
    21    10    12   ar
    22    12    34    1
    23    13    14   am
    24    13    35    1
    25    14    15    2
    26    14    16    1
    27    16    25    1
    28    16    17    2
    29    17    18    1
    30    17    36    1
    31    18    19    1
    32    18    37    1
    33    19    25   ar
    34    19    20   ar
    35    20    21   ar
    36    20    38    1
    37    21    22    1
    38    21    23   ar
    39    23    24   ar
    40    23    39    1
    41    24    25   ar
    42    24    40    1
@<TRIPOS>SUBSTRUCTURE
     1 ZINC000581017854        1 TEMP              0 ****  ****    0 ROOT


##########                                Name:    ZINC000675319328
##########                DOCK_Rotatable_Bonds:                   7
##########                         Heavy_Atoms:                  26
##########                    Molecular_Weight:             363.475
##########                DOCK_Rotatable_Bonds:                   7
##########                       Formal_Charge:          -0.0200007
##########                     HBond_Acceptors:                   6
##########                        HBond_Donors:                   1
##########                         Heavy_Atoms:                  26
##########                          Grid_Score:          -31.391075
##########                     Grid_vdw_energy:          -30.758015
##########                      Grid_es_energy:           -0.633060
##########           Internal_energy_repulsive:           22.885260

@<TRIPOS>MOLECULE
ZINC000675319328
 56 58 1 0 0
SMALL
USER_CHARGES


@<TRIPOS>ATOM
      1 C1         -2.3345    2.1375   47.3333 C.3     1  ZINC000675319328   -0.1600
      2 C2         -1.6236    1.8000   48.6453 C.3     1  ZINC000675319328    0.1600
      3 H3         -0.6193    2.2235   48.6339 H       1  ZINC000675319328    0.0900
      4 C4         -1.5345    0.2806   48.8010 C.3     1  ZINC000675319328   -0.1200
      5 C5         -0.3078   -0.2382   48.0480 C.3     1  ZINC000675319328   -0.1200
      6 H6         -0.4801   -0.2227   46.9718 H       1  ZINC000675319328    0.0800
      7 C7          0.9562    0.5852   48.4172 C.3     1  ZINC000675319328   -0.1500
      8 C8          2.0703   -0.4666   48.1857 C.3     1  ZINC000675319328    0.0500
      9 O9          1.5014   -1.7152   48.6108 O.3     1  ZINC000675319328   -0.3900
     10 C10         0.0693   -1.6576   48.5238 C.3     1  ZINC000675319328    0.0500
     11 N11        -2.3780    2.3625   49.7682 N.am    1  ZINC000675319328   -0.7400
     12 C12        -2.1708    3.6392   50.1471 C.2     1  ZINC000675319328    0.7000
     13 O13        -1.3578    4.3241   49.5570 O.2     1  ZINC000675319328   -0.5900
     14 N14        -2.8648    4.1566   51.1801 N.am    1  ZINC000675319328   -0.6200
     15 C15        -3.8449    3.3005   51.8767 C.3     1  ZINC000675319328    0.1300
     16 C16        -3.7742    3.4961   53.4005 C.3     1  ZINC000675319328   -0.1300
     17 C17        -2.3293    3.6253   53.8297 C.3     1  ZINC000675319328    0.0700
     18 N18        -1.9605    5.0398   53.8485 N.3     1  ZINC000675319328   -0.5500
     19 C19        -1.0223    5.3249   54.9423 C.3     1  ZINC000675319328    0.1000
     20 C20        -0.0416    4.1880   55.0721 C.ar    1  ZINC000675319328   -0.0900
     21 C21        -0.1500    3.2994   56.1256 C.ar    1  ZINC000675319328   -0.0900
     22 C22         0.7488    2.2565   56.2457 C.ar    1  ZINC000675319328   -0.1500
     23 C23         1.7576    2.1014   55.3102 C.ar    1  ZINC000675319328    0.1000
     24 F24         2.6365    1.0819   55.4264 F       1  ZINC000675319328   -0.1400
     25 C25         1.8648    2.9918   54.2551 C.ar    1  ZINC000675319328   -0.1500
     26 C26         0.9619    4.0312   54.1345 C.ar    1  ZINC000675319328   -0.0700
     27 C27        -1.4966    5.5838   52.6279 C.3     1  ZINC000675319328    0.0500
     28 C28        -2.6162    5.5302   51.5682 C.3     1  ZINC000675319328    0.1100
     29 H29        -2.3979    3.2200   47.2223 H       1  ZINC000675319328    0.0600
     30 H30        -1.7732    1.7190   46.4978 H       1  ZINC000675319328    0.0700
     31 H31        -3.3388    1.7140   47.3447 H       1  ZINC000675319328    0.0500
     32 H32        -1.4458    0.0282   49.8577 H       1  ZINC000675319328    0.0700
     33 H33        -2.4337   -0.1799   48.3917 H       1  ZINC000675319328    0.0900
     34 H34         1.0775    1.4390   47.7506 H       1  ZINC000675319328    0.0800
     35 H35         0.9272    0.9038   49.4592 H       1  ZINC000675319328    0.0800
     36 H36         2.3347   -0.5114   47.1293 H       1  ZINC000675319328    0.0600
     37 H37         2.9478   -0.2267   48.7863 H       1  ZINC000675319328    0.0900
     38 H38        -0.3685   -1.8445   49.5045 H       1  ZINC000675319328    0.0700
     39 H39        -0.2881   -2.4001   47.8104 H       1  ZINC000675319328    0.0700
     40 H40        -3.0266    1.8161   50.2389 H       1  ZINC000675319328    0.3900
     41 H41        -4.8476    3.5517   51.5308 H       1  ZINC000675319328    0.0600
     42 H42        -3.6381    2.2566   51.6409 H       1  ZINC000675319328    0.0900
     43 H43        -4.3167    4.4005   53.6758 H       1  ZINC000675319328    0.0800
     44 H44        -4.2251    2.6375   53.8979 H       1  ZINC000675319328    0.0800
     45 H45        -2.2064    3.2033   54.8272 H       1  ZINC000675319328    0.0700
     46 H46        -1.6910    3.0915   53.1258 H       1  ZINC000675319328    0.0400
     47 H47        -0.4829    6.2473   54.7271 H       1  ZINC000675319328    0.0900
     48 H48        -1.5749    5.4363   55.8752 H       1  ZINC000675319328    0.0400
     49 H49        -0.9370    3.4205   56.8552 H       1  ZINC000675319328    0.1300
     50 H50         0.6644    1.5628   57.0692 H       1  ZINC000675319328    0.1400
     51 H51         2.6515    2.8721   53.5250 H       1  ZINC000675319328    0.1400
     52 H52         1.0451    4.7255   53.3115 H       1  ZINC000675319328    0.1300
     53 H53        -1.1946    6.6193   52.7850 H       1  ZINC000675319328    0.0900
     54 H54        -0.6400    5.0078   52.2776 H       1  ZINC000675319328    0.0300
     55 H55        -2.3136    6.1033   50.6917 H       1  ZINC000675319328    0.0700
     56 H56        -3.5290    5.9577   51.9829 H       1  ZINC000675319328    0.0900
@<TRIPOS>BOND
     1     1     2    1
     2     1    29    1
     3     1    30    1
     4     1    31    1
     5     2     3    1
     6     2     4    1
     7     2    11    1
     8     4     5    1
     9     4    32    1
    10     4    33    1
    11     5     6    1
    12     5    10    1
    13     5     7    1
    14     7     8    1
    15     7    34    1
    16     7    35    1
    17     8     9    1
    18     8    36    1
    19     8    37    1
    20     9    10    1
    21    10    38    1
    22    10    39    1
    23    11    12   am
    24    11    40    1
    25    12    13    2
    26    12    14   am
    27    14    28    1
    28    14    15    1
    29    15    16    1
    30    15    41    1
    31    15    42    1
    32    16    17    1
    33    16    43    1
    34    16    44    1
    35    17    18    1
    36    17    45    1
    37    17    46    1
    38    18    19    1
    39    18    27    1
    40    19    20    1
    41    19    47    1
    42    19    48    1
    43    20    26   ar
    44    20    21   ar
    45    21    22   ar
    46    21    49    1
    47    22    23   ar
    48    22    50    1
    49    23    24    1
    50    23    25   ar
    51    25    26   ar
    52    25    51    1
    53    26    52    1
    54    27    28    1
    55    27    53    1
    56    27    54    1
    57    28    55    1
    58    28    56    1
@<TRIPOS>SUBSTRUCTURE
     1 ZINC000675319328        1 TEMP              0 ****  ****    0 ROOT


##########                                Name:    ZINC000469435497
##########                DOCK_Rotatable_Bonds:                   6
##########                         Heavy_Atoms:                  27
##########                    Molecular_Weight:             364.444
##########                DOCK_Rotatable_Bonds:                   6
##########                       Formal_Charge:           0.0300001
##########                     HBond_Acceptors:                   5
##########                        HBond_Donors:                   2
##########                         Heavy_Atoms:                  27
##########                          Grid_Score:          -31.375557
##########                     Grid_vdw_energy:          -30.802637
##########                      Grid_es_energy:           -0.572920
##########           Internal_energy_repulsive:            5.386891

@<TRIPOS>MOLECULE
ZINC000469435497
 51 54 1 0 0
SMALL
USER_CHARGES


@<TRIPOS>ATOM
      1 C1          0.1158    0.4973   46.8040 C.3     1  ZINC000469435497   -0.1600
      2 C2         -0.8653    1.5988   46.3980 C.3     1  ZINC000469435497    0.1000
      3 C3         -1.0275    1.6438   44.8774 C.3     1  ZINC000469435497   -0.1400
      4 C4         -2.2326    1.3984   47.0934 C.3     1  ZINC000469435497   -0.1000
      5 C5         -2.0789    2.2498   48.3389 C.ar    1  ZINC000469435497   -0.1500
      6 C6         -2.7964    2.3066   49.5123 C.ar    1  ZINC000469435497   -0.0700
      7 C7         -2.4214    3.1963   50.5118 C.ar    1  ZINC000469435497    0.1100
      8 N8         -3.1475    3.2585   51.7085 N.am    1  ZINC000469435497   -0.6600
      9 C9         -3.7449    4.4096   52.0751 C.2     1  ZINC000469435497    0.5100
     10 O10        -3.6540    5.3917   51.3691 O.2     1  ZINC000469435497   -0.5200
     11 C11        -4.5259    4.4766   53.3622 C.3     1  ZINC000469435497    0.1000
     12 N12        -5.5880    3.4679   53.3421 N.am    1  ZINC000469435497   -0.7200
     13 C13        -6.6891    3.6334   54.1015 C.2     1  ZINC000469435497    0.5700
     14 O14        -6.8002    4.6190   54.8042 O.2     1  ZINC000469435497   -0.5300
     15 C15        -7.7618    2.6161   54.0798 C.ar    1  ZINC000469435497   -0.1400
     16 C16        -8.8547    2.7306   54.9400 C.ar    1  ZINC000469435497   -0.0800
     17 C17        -9.8502    1.7774   54.9128 C.ar    1  ZINC000469435497   -0.1100
     18 C18        -9.7723    0.7062   54.0365 C.ar    1  ZINC000469435497   -0.0700
     19 C19       -10.7232   -0.4524   53.8214 C.3     1  ZINC000469435497   -0.0900
     20 C20       -10.3323   -1.0474   52.4521 C.3     1  ZINC000469435497   -0.1200
     21 C21        -8.8433   -0.6588   52.3343 C.3     1  ZINC000469435497   -0.0800
     22 C22        -8.6907    0.5870   53.1809 C.ar    1  ZINC000469435497   -0.1100
     23 C23        -7.6900    1.5399   53.1956 C.ar    1  ZINC000469435497   -0.0400
     24 C24        -1.3231    4.0228   50.3178 C.ar    1  ZINC000469435497   -0.1000
     25 C25        -0.6092    3.9657   49.1393 C.ar    1  ZINC000469435497   -0.1200
     26 C26        -0.9827    3.0782   48.1333 C.ar    1  ZINC000469435497    0.1000
     27 O27        -0.4356    2.8748   46.9024 O.3     1  ZINC000469435497   -0.3000
     28 H28         0.1929    0.4618   47.8908 H       1  ZINC000469435497    0.0600
     29 H29        -0.2427   -0.4631   46.4338 H       1  ZINC000469435497    0.0800
     30 H30         1.0962    0.7083   46.3769 H       1  ZINC000469435497    0.0700
     31 H31        -1.4195    0.6895   44.5254 H       1  ZINC000469435497    0.0800
     32 H32        -1.7197    2.4420   44.6092 H       1  ZINC000469435497    0.0700
     33 H33        -0.0590    1.8319   44.4141 H       1  ZINC000469435497    0.0700
     34 H34        -3.0455    1.7668   46.4676 H       1  ZINC000469435497    0.0900
     35 H35        -2.3873    0.3514   47.3539 H       1  ZINC000469435497    0.0900
     36 H36        -3.6500    1.6608   49.6558 H       1  ZINC000469435497    0.1400
     37 H37        -3.2203    2.4730   52.2731 H       1  ZINC000469435497    0.4200
     38 H38        -3.8586    4.2849   54.2024 H       1  ZINC000469435497    0.1100
     39 H39        -4.9678    5.4674   53.4679 H       1  ZINC000469435497    0.1100
     40 H40        -5.4989    2.6807   52.7822 H       1  ZINC000469435497    0.4100
     41 H41        -8.9204    3.5631   55.6249 H       1  ZINC000469435497    0.1300
     42 H42       -10.6960    1.8657   55.5787 H       1  ZINC000469435497    0.1300
     43 H43       -10.5963   -1.1969   54.6074 H       1  ZINC000469435497    0.0900
     44 H44       -11.7535   -0.0969   53.7990 H       1  ZINC000469435497    0.0800
     45 H45       -10.4511   -2.1309   52.4524 H       1  ZINC000469435497    0.0800
     46 H46       -10.9158   -0.5929   51.6515 H       1  ZINC000469435497    0.0700
     47 H47        -8.2120   -1.4586   52.7212 H       1  ZINC000469435497    0.0800
     48 H48        -8.5895   -0.4441   51.2963 H       1  ZINC000469435497    0.0800
     49 H49        -6.8492    1.4492   52.5238 H       1  ZINC000469435497    0.1400
     50 H50        -1.0265    4.7138   51.0931 H       1  ZINC000469435497    0.1400
     51 H51         0.2439    4.6123   48.9958 H       1  ZINC000469435497    0.1300
@<TRIPOS>BOND
     1     1     2    1
     2     1    28    1
     3     1    29    1
     4     1    30    1
     5     2    27    1
     6     2     3    1
     7     2     4    1
     8     3    31    1
     9     3    32    1
    10     3    33    1
    11     4     5    1
    12     4    34    1
    13     4    35    1
    14     5    26   ar
    15     5     6   ar
    16     6     7   ar
    17     6    36    1
    18     7     8    1
    19     7    24   ar
    20     8     9   am
    21     8    37    1
    22     9    10    2
    23     9    11    1
    24    11    12    1
    25    11    38    1
    26    11    39    1
    27    12    13   am
    28    12    40    1
    29    13    14    2
    30    13    15    1
    31    15    23   ar
    32    15    16   ar
    33    16    17   ar
    34    16    41    1
    35    17    18   ar
    36    17    42    1
    37    18    22   ar
    38    18    19    1
    39    19    20    1
    40    19    43    1
    41    19    44    1
    42    20    21    1
    43    20    45    1
    44    20    46    1
    45    21    22    1
    46    21    47    1
    47    21    48    1
    48    22    23   ar
    49    23    49    1
    50    24    25   ar
    51    24    50    1
    52    25    26   ar
    53    25    51    1
    54    26    27    1
@<TRIPOS>SUBSTRUCTURE
     1 ZINC000469435497        1 TEMP              0 ****  ****    0 ROOT


##########                                Name:    ZINC001181473921
##########                DOCK_Rotatable_Bonds:                   9
##########                         Heavy_Atoms:                  24
##########                    Molecular_Weight:             357.431
##########                DOCK_Rotatable_Bonds:                   9
##########                       Formal_Charge:        -5.96046e-08
##########                     HBond_Acceptors:                   9
##########                        HBond_Donors:                   4
##########                         Heavy_Atoms:                  24
##########                          Grid_Score:          -31.372120
##########                     Grid_vdw_energy:          -27.578465
##########                      Grid_es_energy:           -3.793656
##########           Internal_energy_repulsive:           13.734332

@<TRIPOS>MOLECULE
ZINC001181473921
 47 48 1 0 0
SMALL
USER_CHARGES


@<TRIPOS>ATOM
      1 C1         -0.6932    4.2427   46.9149 C.3     1  ZINC001181473921   -0.1300
      2 C2         -0.8513    2.7726   46.6241 C.2     1  ZINC001181473921    0.1900
      3 C3         -0.7317    2.3280   45.3548 C.2     1  ZINC001181473921   -0.2400
      4 C4         -0.8779    0.9542   45.0769 C.2     1  ZINC001181473921    0.2500
      5 O5         -0.7603    0.4927   43.8089 O.3     1  ZINC001181473921   -0.4600
      6 C6         -1.1428    0.0847   46.1187 C.2     1  ZINC001181473921   -0.3700
      7 C7         -1.2580    0.5930   47.4178 C.2     1  ZINC001181473921    0.5300
      8 O8         -1.4914   -0.1620   48.3489 O.2     1  ZINC001181473921   -0.5500
      9 N9         -1.1066    1.9112   47.6436 N.am    1  ZINC001181473921   -0.5000
     10 C10        -1.2297    2.4271   49.0092 C.3     1  ZINC001181473921    0.1000
     11 C11        -2.6988    2.7318   49.3087 C.3     1  ZINC001181473921   -0.1600
     12 C12        -2.7910    3.6085   50.5311 C.2     1  ZINC001181473921    0.5200
     13 O13        -2.9728    4.8014   50.4094 O.2     1  ZINC001181473921   -0.5300
     14 N14        -2.6716    3.0669   51.7594 N.am    1  ZINC001181473921   -0.7200
     15 C15        -2.7594    3.9194   52.9476 C.3     1  ZINC001181473921    0.1400
     16 H16        -2.9220    4.9593   52.6639 H       1  ZINC001181473921    0.1000
     17 C17        -1.4859    3.7806   53.8181 C.3     1  ZINC001181473921   -0.1300
     18 C18        -1.9467    4.1939   55.2311 C.3     1  ZINC001181473921   -0.1500
     19 C19        -3.4677    3.9671   55.2814 C.3     1  ZINC001181473921   -0.0800
     20 H20        -3.9794    4.9090   55.4796 H       1  ZINC001181473921    0.0900
     21 C21        -3.8098    2.9465   56.3687 C.3     1  ZINC001181473921   -0.6200
     22 S22        -5.5408    3.1538   56.8697 S.o2    1  ZINC001181473921    2.6100
     23 N23        -5.5389    4.5182   57.8081 N.am    1  ZINC001181473921   -1.2500
     24 O24        -6.3459    3.4991   55.7507 O.2     1  ZINC001181473921   -0.9600
     25 O25        -5.9299    2.1167   57.7598 O.2     1  ZINC001181473921   -0.9600
     26 C26        -3.8817    3.4269   53.8947 C.3     1  ZINC001181473921   -0.1200
     27 H27         0.0800    4.3826   47.6703 H       1  ZINC001181473921    0.0900
     28 H28        -0.4078    4.7651   46.0018 H       1  ZINC001181473921    0.1000
     29 H29        -1.6375    4.6439   47.2828 H       1  ZINC001181473921    0.0900
     30 H30        -0.5248    3.0233   44.5547 H       1  ZINC001181473921    0.1500
     31 H31        -1.1386    1.0798   43.1400 H       1  ZINC001181473921    0.4100
     32 H32        -1.2597   -0.9727   45.9325 H       1  ZINC001181473921    0.1500
     33 H33        -0.8624    1.6812   49.7140 H       1  ZINC001181473921    0.1000
     34 H34        -0.6421    3.3400   49.1071 H       1  ZINC001181473921    0.1100
     35 H35        -3.1439    3.2473   48.4576 H       1  ZINC001181473921    0.1100
     36 H36        -3.2338    1.7995   49.4891 H       1  ZINC001181473921    0.1000
     37 H37        -2.5274    2.1126   51.8567 H       1  ZINC001181473921    0.4000
     38 H38        -1.1343    2.7488   53.8180 H       1  ZINC001181473921    0.0700
     39 H39        -0.7043    4.4509   53.4604 H       1  ZINC001181473921    0.0800
     40 H40        -1.4520    3.5763   55.9807 H       1  ZINC001181473921    0.0900
     41 H41        -1.7200    5.2459   55.4050 H       1  ZINC001181473921    0.0800
     42 H42        -3.6621    1.9387   55.9804 H       1  ZINC001181473921    0.1400
     43 H43        -3.1609    3.1026   57.2306 H       1  ZINC001181473921    0.1400
     44 H44        -5.2455    5.3637   57.4340 H       1  ZINC001181473921    0.4100
     45 H45        -5.8312    4.4720   58.7319 H       1  ZINC001181473921    0.4200
     46 H46        -4.8463    3.8381   53.5975 H       1  ZINC001181473921    0.0800
     47 H47        -3.9171    2.3375   53.9048 H       1  ZINC001181473921    0.0800
@<TRIPOS>BOND
     1     1     2    1
     2     1    27    1
     3     1    28    1
     4     1    29    1
     5     2     9    1
     6     2     3    2
     7     3     4    1
     8     3    30    1
     9     4     5    1
    10     4     6    2
    11     5    31    1
    12     6     7    1
    13     6    32    1
    14     7     8    2
    15     7     9   am
    16     9    10    1
    17    10    11    1
    18    10    33    1
    19    10    34    1
    20    11    12    1
    21    11    35    1
    22    11    36    1
    23    12    13    2
    24    12    14   am
    25    14    15    1
    26    14    37    1
    27    15    16    1
    28    15    26    1
    29    15    17    1
    30    17    18    1
    31    17    38    1
    32    17    39    1
    33    18    19    1
    34    18    40    1
    35    18    41    1
    36    19    20    1
    37    19    21    1
    38    19    26    1
    39    21    22    1
    40    21    42    1
    41    21    43    1
    42    22    23   am
    43    22    24    2
    44    22    25    2
    45    23    44    1
    46    23    45    1
    47    26    46    1
    48    26    47    1
@<TRIPOS>SUBSTRUCTURE
     1 ZINC001181473921        1 TEMP              0 ****  ****    0 ROOT


##########                                Name:    ZINC001500042809
##########                DOCK_Rotatable_Bonds:                   9
##########                         Heavy_Atoms:                  24
##########                    Molecular_Weight:              346.45
##########                DOCK_Rotatable_Bonds:                   9
##########                       Formal_Charge:           0.0200001
##########                     HBond_Acceptors:                   6
##########                        HBond_Donors:                   2
##########                         Heavy_Atoms:                  24
##########                          Grid_Score:          -31.359909
##########                     Grid_vdw_energy:          -30.026335
##########                      Grid_es_energy:           -1.333575
##########           Internal_energy_repulsive:           20.942842

@<TRIPOS>MOLECULE
ZINC001500042809
 46 47 1 0 0
SMALL
USER_CHARGES


@<TRIPOS>ATOM
      1 C1         -1.3645    0.4815   44.5974 C.3     1  ZINC001500042809    0.0200
      2 O2         -0.7981    0.3367   45.9013 O.3     1  ZINC001500042809   -0.3100
      3 C3         -1.2173    1.2062   46.8552 C.ar    1  ZINC001500042809    0.1600
      4 C4         -1.1434    2.5752   46.6260 C.ar    1  ZINC001500042809   -0.1600
      5 C5         -1.5674    3.4607   47.5917 C.ar    1  ZINC001500042809   -0.0200
      6 C6         -2.0728    2.9813   48.8030 C.ar    1  ZINC001500042809   -0.1800
      7 C7         -2.5284    3.9270   49.8406 C.2     1  ZINC001500042809    0.5600
      8 O8         -2.2498    5.1072   49.7522 O.2     1  ZINC001500042809   -0.5300
      9 N9         -3.2535    3.4823   50.8861 N.am    1  ZINC001500042809   -0.7300
     10 C10        -3.7072    4.4212   51.9152 C.3     1  ZINC001500042809    0.1300
     11 C11        -4.0441    3.6523   53.1942 C.3     1  ZINC001500042809   -0.1200
     12 H12        -4.5297    2.7114   52.9353 H       1  ZINC001500042809    0.0900
     13 C13        -2.7575    3.3653   53.9707 C.3     1  ZINC001500042809   -0.1500
     14 C14        -4.9861    4.4910   54.0603 C.3     1  ZINC001500042809    0.1300
     15 N15        -5.3767    3.7211   55.2439 N.am    1  ZINC001500042809   -0.7300
     16 C16        -6.4884    2.9598   55.2160 C.2     1  ZINC001500042809    0.5900
     17 O17        -7.1671    2.9108   54.2070 O.2     1  ZINC001500042809   -0.5200
     18 C18        -6.8801    2.1908   56.4008 C.2     1  ZINC001500042809   -0.2800
     19 C19        -7.9646    1.3639   56.4864 C.2     1  ZINC001500042809   -0.0100
     20 C20        -8.9204    1.1303   55.3449 C.3     1  ZINC001500042809   -0.1100
     21 C21        -8.0967    0.7658   57.7171 C.2     1  ZINC001500042809   -0.1500
     22 C22        -7.1541    1.0903   58.6099 C.2     1  ZINC001500042809   -0.2200
     23 S23        -6.0255    2.1788   57.9374 S.3     1  ZINC001500042809    0.1900
     24 C24        -2.1406    1.6045   49.0315 C.ar    1  ZINC001500042809   -0.0400
     25 C25        -1.7191    0.7254   48.0590 C.ar    1  ZINC001500042809   -0.2200
     26 H26        -2.4455    0.3545   44.6547 H       1  ZINC001500042809    0.0600
     27 H27        -1.1353    1.4742   44.2100 H       1  ZINC001500042809    0.0600
     28 H28        -0.9446   -0.2737   43.9330 H       1  ZINC001500042809    0.1000
     29 H29        -0.7526    2.9449   45.6896 H       1  ZINC001500042809    0.1400
     30 H30        -1.5090    4.5242   47.4131 H       1  ZINC001500042809    0.1400
     31 H31        -3.4748    2.5406   50.9572 H       1  ZINC001500042809    0.4000
     32 H32        -4.5950    4.9460   51.5622 H       1  ZINC001500042809    0.0800
     33 H33        -2.9170    5.1428   52.1225 H       1  ZINC001500042809    0.0800
     34 H34        -2.0863    2.7678   53.3537 H       1  ZINC001500042809    0.0600
     35 H35        -2.2718    4.3062   54.2296 H       1  ZINC001500042809    0.0600
     36 H36        -2.9975    2.8175   54.8820 H       1  ZINC001500042809    0.0600
     37 H37        -4.4775    5.4033   54.3718 H       1  ZINC001500042809    0.0800
     38 H38        -5.8753    4.7491   53.4851 H       1  ZINC001500042809    0.0800
     39 H39        -4.8350    3.7592   56.0478 H       1  ZINC001500042809    0.4000
     40 H40        -8.5750    0.2857   54.7488 H       1  ZINC001500042809    0.0800
     41 H41        -9.9129    0.9142   55.7405 H       1  ZINC001500042809    0.0700
     42 H42        -8.9647    2.0222   54.7198 H       1  ZINC001500042809    0.0900
     43 H43        -8.9023    0.0842   57.9467 H       1  ZINC001500042809    0.1500
     44 H44        -7.1114    0.7105   59.6201 H       1  ZINC001500042809    0.1700
     45 H45        -2.5266    1.2303   49.9682 H       1  ZINC001500042809    0.1300
     46 H46        -1.7742   -0.3389   48.2336 H       1  ZINC001500042809    0.1400
@<TRIPOS>BOND
     1     1     2    1
     2     1    26    1
     3     1    27    1
     4     1    28    1
     5     2     3    1
     6     3    25   ar
     7     3     4   ar
     8     4     5   ar
     9     4    29    1
    10     5     6   ar
    11     5    30    1
    12     6     7    1
    13     6    24   ar
    14     7     8    2
    15     7     9   am
    16     9    10    1
    17     9    31    1
    18    10    11    1
    19    10    32    1
    20    10    33    1
    21    11    12    1
    22    11    13    1
    23    11    14    1
    24    13    34    1
    25    13    35    1
    26    13    36    1
    27    14    15    1
    28    14    37    1
    29    14    38    1
    30    15    16   am
    31    15    39    1
    32    16    17    2
    33    16    18    1
    34    18    23    1
    35    18    19    2
    36    19    20    1
    37    19    21    1
    38    20    40    1
    39    20    41    1
    40    20    42    1
    41    21    22    2
    42    21    43    1
    43    22    23    1
    44    22    44    1
    45    24    25   ar
    46    24    45    1
    47    25    46    1
@<TRIPOS>SUBSTRUCTURE
     1 ZINC001500042809        1 TEMP              0 ****  ****    0 ROOT


##########                                Name:    ZINC000963156778
##########                DOCK_Rotatable_Bonds:                   6
##########                         Heavy_Atoms:                  24
##########                    Molecular_Weight:             349.414
##########                DOCK_Rotatable_Bonds:                   6
##########                       Formal_Charge:         -0.00999984
##########                     HBond_Acceptors:                   9
##########                        HBond_Donors:                   2
##########                         Heavy_Atoms:                  24
##########                          Grid_Score:          -31.352705
##########                     Grid_vdw_energy:          -31.999197
##########                      Grid_es_energy:            0.646492
##########           Internal_energy_repulsive:            8.047846

@<TRIPOS>MOLECULE
ZINC000963156778
 43 46 1 0 0
SMALL
USER_CHARGES


@<TRIPOS>ATOM
      1 C1         -2.6743    1.9190   55.7021 C.3     1  ZINC000963156778   -0.0800
      2 C2         -3.7075    3.0100   55.8183 C.2     1  ZINC000963156778    0.0300
      3 C3         -3.5301    4.2671   55.3493 C.2     1  ZINC000963156778   -0.2600
      4 C4         -2.3244    4.8303   54.6421 C.3     1  ZINC000963156778    0.1300
      5 N5         -2.6505    5.0641   53.2290 N.3     1  ZINC000963156778   -0.5000
      6 C6         -3.1706    3.8275   52.5910 C.3     1  ZINC000963156778    0.0600
      7 C7         -2.9535    4.0492   51.0787 C.3     1  ZINC000963156778   -0.1700
      8 H8         -3.8385    4.1154   50.4458 H       1  ZINC000963156778    0.1200
      9 C9         -1.8084    5.0784   50.9848 C.3     1  ZINC000963156778   -0.1700
     10 H10        -1.8344    5.9027   50.2721 H       1  ZINC000963156778    0.1200
     11 C11        -1.4299    5.3920   52.4482 C.3     1  ZINC000963156778    0.0600
     12 C12        -1.6218    3.6072   50.4687 C.3     1  ZINC000963156778    0.1200
     13 H13        -0.9892    2.9443   51.0590 H       1  ZINC000963156778    0.1400
     14 N14        -1.5723    3.4013   49.0191 N.am    1  ZINC000963156778   -0.7000
     15 C15        -2.2894    2.4096   48.4545 C.2     1  ZINC000963156778    0.5100
     16 O16        -2.9767    1.6886   49.1464 O.2     1  ZINC000963156778   -0.5000
     17 C17        -2.2372    2.1966   46.9635 C.3     1  ZINC000963156778   -0.1300
     18 C18        -0.9685    1.4210   46.6034 C.3     1  ZINC000963156778   -0.1100
     19 H19        -0.1420    1.7188   47.2487 H       1  ZINC000963156778    0.1300
     20 C20        -0.6037    1.6356   45.1203 C.3     1  ZINC000963156778   -0.1600
     21 C21        -0.6786    0.2437   44.5317 C.2     1  ZINC000963156778    0.5300
     22 O22        -0.4608   -0.0417   43.3737 O.2     1  ZINC000963156778   -0.4800
     23 N23        -1.0230   -0.6228   45.4923 N.am    1  ZINC000963156778   -0.6900
     24 C24        -1.2099   -0.0695   46.7008 C.2     1  ZINC000963156778    0.5200
     25 O25        -1.5241   -0.6691   47.7065 O.2     1  ZINC000963156778   -0.4500
     26 S26        -4.9975    5.0749   55.7450 S.3     1  ZINC000963156778    0.4500
     27 N27        -5.6796    3.8432   56.4284 N.2     1  ZINC000963156778   -0.2900
     28 N28        -4.8864    2.8450   56.3828 N.2     1  ZINC000963156778   -0.2400
     29 H29        -2.8209    1.3779   54.7674 H       1  ZINC000963156778    0.0900
     30 H30        -1.6775    2.3598   55.7143 H       1  ZINC000963156778    0.0800
     31 H31        -2.7774    1.2303   56.5406 H       1  ZINC000963156778    0.0800
     32 H32        -2.0361    5.7721   55.1092 H       1  ZINC000963156778    0.1000
     33 H33        -1.4985    4.1224   54.7121 H       1  ZINC000963156778    0.0700
     34 H34        -2.6085    2.9582   52.9324 H       1  ZINC000963156778    0.0600
     35 H35        -4.2315    3.7047   52.8087 H       1  ZINC000963156778    0.0800
     36 H36        -1.1802    6.4473   52.5584 H       1  ZINC000963156778    0.1000
     37 H37        -0.5954    4.7677   52.7672 H       1  ZINC000963156778    0.0500
     38 H38        -1.0235    3.9786   48.4657 H       1  ZINC000963156778    0.4000
     39 H39        -3.1122    1.6293   46.6467 H       1  ZINC000963156778    0.1000
     40 H40        -2.2281    3.1627   46.4587 H       1  ZINC000963156778    0.1200
     41 H41        -1.3262    2.2949   44.6391 H       1  ZINC000963156778    0.1200
     42 H42         0.4052    2.0376   45.0276 H       1  ZINC000963156778    0.1300
     43 H43        -1.1277   -1.5732   45.3290 H       1  ZINC000963156778    0.4200
@<TRIPOS>BOND
     1     1     2    1
     2     1    29    1
     3     1    30    1
     4     1    31    1
     5     2    28    1
     6     2     3    2
     7     3     4    1
     8     3    26    1
     9     4     5    1
    10     4    32    1
    11     4    33    1
    12     5    11    1
    13     5     6    1
    14     6     7    1
    15     6    34    1
    16     6    35    1
    17     7     8    1
    18     7    12    1
    19     7     9    1
    20     9    10    1
    21     9    11    1
    22     9    12    1
    23    11    36    1
    24    11    37    1
    25    12    13    1
    26    12    14    1
    27    14    15   am
    28    14    38    1
    29    15    16    2
    30    15    17    1
    31    17    18    1
    32    17    39    1
    33    17    40    1
    34    18    19    1
    35    18    24    1
    36    18    20    1
    37    20    21    1
    38    20    41    1
    39    20    42    1
    40    21    22    2
    41    21    23   am
    42    23    24   am
    43    23    43    1
    44    24    25    2
    45    26    27    1
    46    27    28    2
@<TRIPOS>SUBSTRUCTURE
     1 ZINC000963156778        1 TEMP              0 ****  ****    0 ROOT


##########                                Name:    ZINC000461336108
##########                DOCK_Rotatable_Bonds:                   5
##########                         Heavy_Atoms:                  26
##########                    Molecular_Weight:             373.522
##########                DOCK_Rotatable_Bonds:                   5
##########                       Formal_Charge:        -3.42727e-07
##########                     HBond_Acceptors:                   7
##########                        HBond_Donors:                   0
##########                         Heavy_Atoms:                  26
##########                          Grid_Score:          -31.348917
##########                     Grid_vdw_energy:          -31.004780
##########                      Grid_es_energy:           -0.344138
##########           Internal_energy_repulsive:           13.062534

@<TRIPOS>MOLECULE
ZINC000461336108
 53 56 1 0 0
SMALL
USER_CHARGES


@<TRIPOS>ATOM
      1 C1         -3.1846    4.2293   50.6872 C.3     1  ZINC000461336108   -0.1300
      2 C2         -1.7211    4.3916   51.1031 C.3     1  ZINC000461336108    0.0700
      3 H3         -1.3267    5.3176   50.6847 H       1  ZINC000461336108    0.0800
      4 C4         -1.6315    4.4438   52.6021 C.2     1  ZINC000461336108    0.5300
      5 O5         -2.4484    5.1021   53.2105 O.2     1  ZINC000461336108   -0.5300
      6 N6         -0.6891    3.7942   53.2935 N.am    1  ZINC000461336108   -0.6100
      7 C7         -0.6655    3.9392   54.7510 C.3     1  ZINC000461336108    0.0700
      8 C8          0.3173    2.9467   52.6604 C.3     1  ZINC000461336108    0.1200
      9 C9          0.4140    3.2725   51.1688 C.3     1  ZINC000461336108    0.0400
     10 N10        -0.9408    3.2555   50.5949 N.3     1  ZINC000461336108   -0.4300
     11 C11        -0.8937    3.2691   49.2100 C.2     1  ZINC000461336108    0.3300
     12 N12        -0.5937    4.2956   48.4497 N.2     1  ZINC000461336108   -0.2500
     13 N13        -0.6463    3.9527   47.2122 N.2     1  ZINC000461336108   -0.2800
     14 C14        -0.9802    2.6974   47.1102 C.2     1  ZINC000461336108    0.2000
     15 C15        -1.1477    1.9188   45.8308 C.3     1  ZINC000461336108   -0.0300
     16 C16         0.2267    1.5013   45.3042 C.3     1  ZINC000461336108   -0.0900
     17 C17         0.0871    0.7641   43.9491 C.3     1  ZINC000461336108   -0.1200
     18 C18         1.4808    0.9670   43.3044 C.3     1  ZINC000461336108   -0.1200
     19 C19         1.8756    2.4045   43.7013 C.3     1  ZINC000461336108   -0.1300
     20 C20         1.0783    2.7442   44.9728 C.3     1  ZINC000461336108   -0.1200
     21 N21        -1.1447    2.2158   48.3794 N.pl3   1  ZINC000461336108   -0.4900
     22 C22        -1.5208    0.8540   48.7669 C.3     1  ZINC000461336108    0.1700
     23 C23        -0.3067   -0.0372   48.7123 C.2     1  ZINC000461336108   -0.2400
     24 C24         0.9585    0.3847   48.7360 C.2     1  ZINC000461336108   -0.0900
     25 C25         1.9094   -0.6195   48.6755 C.2     1  ZINC000461336108   -0.1400
     26 C26         1.4162   -1.8567   48.6026 C.2     1  ZINC000461336108   -0.2000
     27 S27        -0.3414   -1.7929   48.6152 S.3     1  ZINC000461336108    0.1200
     28 H28        -3.5805    3.3036   51.1049 H       1  ZINC000461336108    0.0800
     29 H29        -3.7642    5.0735   51.0605 H       1  ZINC000461336108    0.0800
     30 H30        -3.2515    4.1951   49.5998 H       1  ZINC000461336108    0.0700
     31 H31        -1.4751    4.5986   55.0638 H       1  ZINC000461336108    0.0900
     32 H32        -0.7933    2.9614   55.2155 H       1  ZINC000461336108    0.0700
     33 H33         0.2896    4.3653   55.0584 H       1  ZINC000461336108    0.0600
     34 H34         1.2846    3.1201   53.1320 H       1  ZINC000461336108    0.0900
     35 H35         0.0388    1.9002   52.7847 H       1  ZINC000461336108    0.0900
     36 H36         0.8554    4.2606   51.0383 H       1  ZINC000461336108    0.0500
     37 H37         1.0318    2.5251   50.6708 H       1  ZINC000461336108    0.1100
     38 H38        -1.7487    1.0299   46.0225 H       1  ZINC000461336108    0.0800
     39 H39        -1.6471    2.5420   45.0889 H       1  ZINC000461336108    0.1000
     40 H40         0.7381    0.8717   46.0323 H       1  ZINC000461336108    0.0900
     41 H41        -0.1160   -0.2953   44.1048 H       1  ZINC000461336108    0.0600
     42 H42        -0.6912    1.2222   43.3387 H       1  ZINC000461336108    0.0600
     43 H43         2.1957    0.2499   43.7078 H       1  ZINC000461336108    0.0700
     44 H44         1.4167    0.8745   42.2202 H       1  ZINC000461336108    0.0700
     45 H45         2.9449    2.4548   43.9065 H       1  ZINC000461336108    0.0700
     46 H46         1.6155    3.0975   42.9012 H       1  ZINC000461336108    0.0600
     47 H47         0.4313    3.6020   44.7897 H       1  ZINC000461336108    0.0700
     48 H48         1.7607    2.9594   45.7951 H       1  ZINC000461336108    0.0700
     49 H49        -1.9202    0.8621   49.7812 H       1  ZINC000461336108    0.1200
     50 H50        -2.2792    0.4773   48.0807 H       1  ZINC000461336108    0.1000
     51 H51         1.2211    1.4304   48.7975 H       1  ZINC000461336108    0.1400
     52 H52         2.9700   -0.4165   48.6861 H       1  ZINC000461336108    0.1500
     53 H53         2.0061   -2.7598   48.5479 H       1  ZINC000461336108    0.1700
@<TRIPOS>BOND
     1     1     2    1
     2     1    28    1
     3     1    29    1
     4     1    30    1
     5     2     3    1
     6     2    10    1
     7     2     4    1
     8     4     5    2
     9     4     6   am
    10     6     7    1
    11     6     8    1
    12     7    31    1
    13     7    32    1
    14     7    33    1
    15     8     9    1
    16     8    34    1
    17     8    35    1
    18     9    10    1
    19     9    36    1
    20     9    37    1
    21    10    11    1
    22    11    21    1
    23    11    12    2
    24    12    13    1
    25    13    14    2
    26    14    15    1
    27    14    21    1
    28    15    16    1
    29    15    38    1
    30    15    39    1
    31    16    20    1
    32    16    17    1
    33    16    40    1
    34    17    18    1
    35    17    41    1
    36    17    42    1
    37    18    19    1
    38    18    43    1
    39    18    44    1
    40    19    20    1
    41    19    45    1
    42    19    46    1
    43    20    47    1
    44    20    48    1
    45    21    22    1
    46    22    23    1
    47    22    49    1
    48    22    50    1
    49    23    27    1
    50    23    24    2
    51    24    25    1
    52    24    51    1
    53    25    26    2
    54    25    52    1
    55    26    27    1
    56    26    53    1
@<TRIPOS>SUBSTRUCTURE
     1 ZINC000461336108        1 TEMP              0 ****  ****    0 ROOT


##########                                Name:    ZINC001015955459
##########                DOCK_Rotatable_Bonds:                   6
##########                         Heavy_Atoms:                  24
##########                    Molecular_Weight:             347.844
##########                DOCK_Rotatable_Bonds:                   6
##########                       Formal_Charge:          -0.0200002
##########                     HBond_Acceptors:                   6
##########                        HBond_Donors:                   1
##########                         Heavy_Atoms:                  24
##########                          Grid_Score:          -31.338638
##########                     Grid_vdw_energy:          -30.143286
##########                      Grid_es_energy:           -1.195352
##########           Internal_energy_repulsive:            7.683118

@<TRIPOS>MOLECULE
ZINC001015955459
 46 48 1 0 0
SMALL
USER_CHARGES


@<TRIPOS>ATOM
      1 C1         -6.9199    2.6090   56.6006 C.3     1  ZINC001015955459   -0.1500
      2 C2         -6.1398    3.1956   55.4223 C.3     1  ZINC001015955459   -0.0300
      3 C3         -6.5089    4.6704   55.2500 C.3     1  ZINC001015955459   -0.1500
      4 C4         -4.6615    3.0757   55.6891 C.2     1  ZINC001015955459    0.0600
      5 C5         -3.6664    3.0986   54.7610 C.2     1  ZINC001015955459   -0.0800
      6 C6         -3.8315    3.2451   53.3034 C.2     1  ZINC001015955459    0.6100
      7 O7         -4.7827    2.7331   52.7446 O.2     1  ZINC001015955459   -0.5300
      8 N8         -2.9285    3.9466   52.5900 N.am    1  ZINC001015955459   -0.7100
      9 C9         -3.0935    4.0937   51.1418 C.3     1  ZINC001015955459    0.1400
     10 H10        -4.1279    3.9001   50.8577 H       1  ZINC001015955459    0.1000
     11 C11        -2.6710    5.5086   50.6954 C.3     1  ZINC001015955459   -0.1300
     12 C12        -1.5010    5.2866   49.7132 C.3     1  ZINC001015955459    0.0200
     13 N13        -1.6985    3.9060   49.2016 N.3     1  ZINC001015955459   -0.4900
     14 C14        -0.4464    3.3612   48.6598 C.3     1  ZINC001015955459    0.0800
     15 C15        -0.7507    2.1588   47.8037 C.ar    1  ZINC001015955459   -0.1100
     16 C16        -1.2823    2.3277   46.5390 C.ar    1  ZINC001015955459   -0.1100
     17 C17        -1.5571    1.2252   45.7512 C.ar    1  ZINC001015955459   -0.1000
     18 C18        -1.3105   -0.0467   46.2320 C.ar    1  ZINC001015955459   -0.1100
     19 C19        -0.7833   -0.2166   47.5000 C.ar    1  ZINC001015955459   -0.0300
     20 Cl20       -0.4737   -1.8141   48.1049 Cl      1  ZINC001015955459   -0.0700
     21 C21        -0.5035    0.8870   48.2857 C.ar    1  ZINC001015955459   -0.1000
     22 C22        -2.1433    3.1341   50.3936 C.3     1  ZINC001015955459    0.0100
     23 N23        -2.4909    2.9549   55.4309 N.2     1  ZINC001015955459   -0.4600
     24 C24        -2.7496    2.8590   56.7007 C.2     1  ZINC001015955459    0.1800
     25 O25        -4.0754    2.9264   56.8878 O.3     1  ZINC001015955459   -0.1900
     26 H26        -6.6694    3.1550   57.5100 H       1  ZINC001015955459    0.0600
     27 H27        -7.9892    2.6958   56.4076 H       1  ZINC001015955459    0.0700
     28 H28        -6.6570    1.5584   56.7234 H       1  ZINC001015955459    0.0600
     29 H29        -6.3904    2.6496   54.5127 H       1  ZINC001015955459    0.1300
     30 H30        -5.9531    5.0883   54.4105 H       1  ZINC001015955459    0.0600
     31 H31        -7.5782    4.7572   55.0569 H       1  ZINC001015955459    0.0700
     32 H32        -6.2585    5.2164   56.1594 H       1  ZINC001015955459    0.0600
     33 H33        -2.1692    4.3540   53.0356 H       1  ZINC001015955459    0.4100
     34 H34        -3.4981    6.0095   50.1923 H       1  ZINC001015955459    0.0800
     35 H35        -2.3409    6.0936   51.5539 H       1  ZINC001015955459    0.0700
     36 H36        -1.5497    6.0057   48.8953 H       1  ZINC001015955459    0.0900
     37 H37        -0.5469    5.3663   50.2341 H       1  ZINC001015955459    0.0500
     38 H38         0.0493    4.1212   48.0558 H       1  ZINC001015955459    0.0900
     39 H39         0.2070    3.0665   49.4810 H       1  ZINC001015955459    0.0900
     40 H40        -1.4794    3.3214   46.1647 H       1  ZINC001015955459    0.1300
     41 H41        -1.9686    1.3579   44.7616 H       1  ZINC001015955459    0.1300
     42 H42        -1.5295   -0.9079   45.6182 H       1  ZINC001015955459    0.1300
     43 H43        -0.0924    0.7550   49.2757 H       1  ZINC001015955459    0.1300
     44 H44        -1.2901    2.8778   51.0216 H       1  ZINC001015955459    0.0700
     45 H45        -2.6759    2.2334   50.0882 H       1  ZINC001015955459    0.0900
     46 H46        -2.0134    2.7390   57.4815 H       1  ZINC001015955459    0.2600
@<TRIPOS>BOND
     1     1     2    1
     2     1    26    1
     3     1    27    1
     4     1    28    1
     5     2     3    1
     6     2     4    1
     7     2    29    1
     8     3    30    1
     9     3    31    1
    10     3    32    1
    11     4    25    1
    12     4     5    2
    13     5     6    1
    14     5    23    1
    15     6     7    2
    16     6     8   am
    17     8     9    1
    18     8    33    1
    19     9    10    1
    20     9    22    1
    21     9    11    1
    22    11    12    1
    23    11    34    1
    24    11    35    1
    25    12    13    1
    26    12    36    1
    27    12    37    1
    28    13    14    1
    29    13    22    1
    30    14    15    1
    31    14    38    1
    32    14    39    1
    33    15    21   ar
    34    15    16   ar
    35    16    17   ar
    36    16    40    1
    37    17    18   ar
    38    17    41    1
    39    18    19   ar
    40    18    42    1
    41    19    20    1
    42    19    21   ar
    43    21    43    1
    44    22    44    1
    45    22    45    1
    46    23    24    2
    47    24    25    1
    48    24    46    1
@<TRIPOS>SUBSTRUCTURE
     1 ZINC001015955459        1 TEMP              0 ****  ****    0 ROOT


##########                                Name:    ZINC000744839011
##########                DOCK_Rotatable_Bonds:                  10
##########                         Heavy_Atoms:                  24
##########                    Molecular_Weight:              378.83
##########                DOCK_Rotatable_Bonds:                  10
##########                       Formal_Charge:           0.0300002
##########                     HBond_Acceptors:                   9
##########                        HBond_Donors:                   0
##########                         Heavy_Atoms:                  24
##########                          Grid_Score:          -31.331631
##########                     Grid_vdw_energy:          -29.266558
##########                      Grid_es_energy:           -2.065073
##########           Internal_energy_repulsive:           10.286582

@<TRIPOS>MOLECULE
ZINC000744839011
 43 43 1 0 0
SMALL
USER_CHARGES


@<TRIPOS>ATOM
      1 C1          1.6156   -0.2199   40.9584 C.3     1  ZINC000744839011    0.0400
      2 O2          1.4798    0.3448   42.2893 O.3     1  ZINC000744839011   -0.3600
      3 C3          0.2580    0.2913   42.8548 C.2     1  ZINC000744839011    0.5100
      4 O4         -0.6840   -0.1481   42.2255 O.2     1  ZINC000744839011   -0.5000
      5 C5          0.0640    0.7662   44.2374 C.ar    1  ZINC000744839011   -0.1600
      6 C6          0.5241    2.0307   44.6150 C.ar    1  ZINC000744839011   -0.0100
      7 C7          0.3408    2.4711   45.9069 C.ar    1  ZINC000744839011   -0.2100
      8 C8         -0.3008    1.6603   46.8353 C.ar    1  ZINC000744839011    0.1800
      9 O9         -0.4794    2.0983   48.1075 O.3     1  ZINC000744839011   -0.2900
     10 C10        -1.5610    3.0038   48.3360 C.3     1  ZINC000744839011    0.0500
     11 C11        -1.6754    3.2938   49.8339 C.3     1  ZINC000744839011    0.0600
     12 O12        -2.7785    4.2087   50.0670 O.3     1  ZINC000744839011   -0.3400
     13 C13        -2.9874    4.6015   51.3334 C.2     1  ZINC000744839011    0.5000
     14 O14        -3.8408    5.4209   51.5787 O.2     1  ZINC000744839011   -0.4900
     15 C15        -2.1575    4.0206   52.4491 C.3     1  ZINC000744839011   -0.6400
     16 S16        -3.1217    4.0256   53.9855 S.o2    1  ZINC000744839011    2.4400
     17 O17        -3.3449    5.3736   54.3757 O.2     1  ZINC000744839011   -0.9100
     18 O18        -4.2344    3.1565   53.8246 O.2     1  ZINC000744839011   -0.9100
     19 C19        -1.9625    3.2690   55.1579 C.3     1  ZINC000744839011   -0.5700
     20 C20        -0.7545    4.1890   55.3463 C.3     1  ZINC000744839011   -0.1500
     21 C21        -2.6605    3.0617   56.5035 C.3     1  ZINC000744839011   -0.1500
     22 C22        -0.7611    0.4009   46.4640 C.ar    1  ZINC000744839011   -0.0800
     23 Cl23       -1.5625   -0.6072   47.6283 Cl      1  ZINC000744839011   -0.0400
     24 C24        -0.5860   -0.0450   45.1725 C.ar    1  ZINC000744839011   -0.0100
     25 H25         1.3505   -1.2769   40.9835 H       1  ZINC000744839011    0.0700
     26 H26         0.9517    0.3051   40.2715 H       1  ZINC000744839011    0.0700
     27 H27         2.6465   -0.1117   40.6213 H       1  ZINC000744839011    0.1100
     28 H28         1.0234    2.6617   43.8945 H       1  ZINC000744839011    0.1500
     29 H29         0.6966    3.4480   46.1992 H       1  ZINC000744839011    0.1500
     30 H30        -1.3756    3.9341   47.7989 H       1  ZINC000744839011    0.0900
     31 H31        -2.4897    2.5577   47.9802 H       1  ZINC000744839011    0.1000
     32 H32        -1.8557    2.3628   50.3714 H       1  ZINC000744839011    0.1100
     33 H33        -0.7485    3.7444   50.1886 H       1  ZINC000744839011    0.0900
     34 H34        -1.8777    2.9973   52.1989 H       1  ZINC000744839011    0.1700
     35 H35        -1.2575    4.6209   52.5829 H       1  ZINC000744839011    0.1700
     36 H36        -1.6291    2.3066   54.7694 H       1  ZINC000744839011    0.1400
     37 H37        -0.0580    3.7345   56.0507 H       1  ZINC000744839011    0.0900
     38 H38        -0.2572    4.3367   54.3877 H       1  ZINC000744839011    0.0700
     39 H39        -1.0879    5.1514   55.7348 H       1  ZINC000744839011    0.0800
     40 H40        -3.5210    2.4063   56.3693 H       1  ZINC000744839011    0.0800
     41 H41        -1.9639    2.6072   57.2080 H       1  ZINC000744839011    0.0900
     42 H42        -2.9938    4.0240   56.8920 H       1  ZINC000744839011    0.0800
     43 H43        -0.9433   -1.0226   44.8847 H       1  ZINC000744839011    0.1600
@<TRIPOS>BOND
     1     1     2    1
     2     1    25    1
     3     1    26    1
     4     1    27    1
     5     2     3    1
     6     3     4    2
     7     3     5    1
     8     5    24   ar
     9     5     6   ar
    10     6     7   ar
    11     6    28    1
    12     7     8   ar
    13     7    29    1
    14     8     9    1
    15     8    22   ar
    16     9    10    1
    17    10    11    1
    18    10    30    1
    19    10    31    1
    20    11    12    1
    21    11    32    1
    22    11    33    1
    23    12    13    1
    24    13    14    2
    25    13    15    1
    26    15    16    1
    27    15    34    1
    28    15    35    1
    29    16    17    2
    30    16    18    2
    31    16    19    1
    32    19    20    1
    33    19    21    1
    34    19    36    1
    35    20    37    1
    36    20    38    1
    37    20    39    1
    38    21    40    1
    39    21    41    1
    40    21    42    1
    41    22    23    1
    42    22    24   ar
    43    24    43    1
@<TRIPOS>SUBSTRUCTURE
     1 ZINC000744839011        1 TEMP              0 ****  ****    0 ROOT


##########                                Name:    ZINC000442864105
##########                DOCK_Rotatable_Bonds:                   7
##########                         Heavy_Atoms:                  30
##########                    Molecular_Weight:              414.39
##########                DOCK_Rotatable_Bonds:                   7
##########                       Formal_Charge:           0.0200001
##########                     HBond_Acceptors:                  10
##########                        HBond_Donors:                   2
##########                         Heavy_Atoms:                  30
##########                          Grid_Score:          -31.331264
##########                     Grid_vdw_energy:          -29.514284
##########                      Grid_es_energy:           -1.816981
##########           Internal_energy_repulsive:            7.765965

@<TRIPOS>MOLECULE
ZINC000442864105
 47 50 1 0 0
SMALL
USER_CHARGES


@<TRIPOS>ATOM
      1 C1          0.7022    2.1539   57.4018 C.3     1  ZINC000442864105    0.0800
      2 N2          0.3631    2.6162   56.0536 N.pl3   1  ZINC000442864105   -0.4900
      3 C3          1.2670    3.0472   55.1187 C.2     1  ZINC000442864105    0.0300
      4 C4          0.6276    3.3988   53.9926 C.2     1  ZINC000442864105   -0.1900
      5 C5         -0.8025    3.1754   54.2238 C.ar    1  ZINC000442864105   -0.1600
      6 C6         -1.9482    3.3502   53.4451 C.ar    1  ZINC000442864105   -0.0200
      7 C7         -3.1746    3.0420   53.9608 C.ar    1  ZINC000442864105   -0.2100
      8 C8         -3.2917    2.5531   55.2611 C.ar    1  ZINC000442864105    0.2400
      9 N9         -4.5544    2.2423   55.7742 N.pl3   1  ZINC000442864105   -0.7400
     10 C10        -5.2639    3.2126   56.6116 C.3     1  ZINC000442864105    0.1100
     11 C11        -6.3644    2.5138   57.3676 C.2     1  ZINC000442864105    0.5100
     12 O12        -6.8451    3.0302   58.3542 O.2     1  ZINC000442864105   -0.5100
     13 N13        -6.8147    1.3150   56.9474 N.am    1  ZINC000442864105   -0.6600
     14 C14        -7.8370    0.6659   57.6495 C.ar    1  ZINC000442864105    0.1600
     15 C15        -7.6660    0.3446   58.9880 C.ar    1  ZINC000442864105   -0.0700
     16 C16        -8.6767   -0.2963   59.6793 C.ar    1  ZINC000442864105   -0.1600
     17 C17        -8.4889   -0.6443   61.1334 C.3     1  ZINC000442864105    0.5100
     18 F18        -8.3161   -2.0264   61.2637 F       1  ZINC000442864105   -0.1700
     19 F19        -7.3591    0.0157   61.6286 F       1  ZINC000442864105   -0.1700
     20 F20        -9.6171   -0.2451   61.8580 F       1  ZINC000442864105   -0.1700
     21 C21        -9.8601   -0.6188   59.0406 C.ar    1  ZINC000442864105   -0.0600
     22 C22       -10.0388   -0.3029   57.7070 C.ar    1  ZINC000442864105   -0.1100
     23 C23        -9.0325    0.3453   57.0070 C.ar    1  ZINC000442864105    0.1500
     24 N24        -9.2117    0.6669   55.6536 N.pl3   1  ZINC000442864105   -0.3300
     25 C25        -9.5721   -0.1737   54.6647 C.2     1  ZINC000442864105    0.2800
     26 N26        -9.6302    0.5117   53.5513 N.2     1  ZINC000442864105   -0.5300
     27 C27        -9.3159    1.7849   53.7871 C.2     1  ZINC000442864105    0.2300
     28 N28        -9.0572    1.9306   55.0606 N.2     1  ZINC000442864105   -0.3400
     29 C29        -2.1672    2.3726   56.0478 C.ar    1  ZINC000442864105   -0.2100
     30 C30        -0.9112    2.6768   55.5350 C.ar    1  ZINC000442864105    0.1500
     31 H31         0.8847    1.0795   57.3823 H       1  ZINC000442864105    0.0700
     32 H32         1.5987    2.6684   57.7476 H       1  ZINC000442864105    0.0800
     33 H33        -0.1245    2.3698   58.0786 H       1  ZINC000442864105    0.0800
     34 H34         2.3357    3.0966   55.2660 H       1  ZINC000442864105    0.1700
     35 H35         1.0808    3.7756   53.0876 H       1  ZINC000442864105    0.1400
     36 H36        -1.8649    3.7290   52.4371 H       1  ZINC000442864105    0.1200
     37 H37        -4.0598    3.1782   53.3574 H       1  ZINC000442864105    0.1200
     38 H38        -4.9608    1.3842   55.5756 H       1  ZINC000442864105    0.4100
     39 H39        -4.5660    3.6615   57.3183 H       1  ZINC000442864105    0.1000
     40 H40        -5.6937    3.9910   55.9812 H       1  ZINC000442864105    0.1000
     41 H41        -6.4304    0.9020   56.1583 H       1  ZINC000442864105    0.4300
     42 H42        -6.7431    0.5950   59.4899 H       1  ZINC000442864105    0.1700
     43 H43       -10.6469   -1.1193   59.5854 H       1  ZINC000442864105    0.1500
     44 H44       -10.9642   -0.5565   57.2112 H       1  ZINC000442864105    0.1500
     45 H45        -9.7766   -1.2287   54.7718 H       1  ZINC000442864105    0.2300
     46 H46        -9.2842    2.5705   53.0468 H       1  ZINC000442864105    0.2300
     47 H47        -2.2646    1.9934   57.0543 H       1  ZINC000442864105    0.1200
@<TRIPOS>BOND
     1     1     2    1
     2     1    31    1
     3     1    32    1
     4     1    33    1
     5     2    30    1
     6     2     3    1
     7     3     4    2
     8     3    34    1
     9     4     5    1
    10     4    35    1
    11     5    30   ar
    12     5     6   ar
    13     6     7   ar
    14     6    36    1
    15     7     8   ar
    16     7    37    1
    17     8     9    1
    18     8    29   ar
    19     9    10    1
    20     9    38    1
    21    10    11    1
    22    10    39    1
    23    10    40    1
    24    11    12    2
    25    11    13   am
    26    13    14    1
    27    13    41    1
    28    14    23   ar
    29    14    15   ar
    30    15    16   ar
    31    15    42    1
    32    16    17    1
    33    16    21   ar
    34    17    18    1
    35    17    19    1
    36    17    20    1
    37    21    22   ar
    38    21    43    1
    39    22    23   ar
    40    22    44    1
    41    23    24    1
    42    24    28    1
    43    24    25    1
    44    25    26    2
    45    25    45    1
    46    26    27    1
    47    27    28    2
    48    27    46    1
    49    29    30   ar
    50    29    47    1
@<TRIPOS>SUBSTRUCTURE
     1 ZINC000442864105        1 TEMP              0 ****  ****    0 ROOT


##########                                Name:    ZINC001327099466
##########                DOCK_Rotatable_Bonds:                   7
##########                         Heavy_Atoms:                  27
##########                    Molecular_Weight:             374.483
##########                DOCK_Rotatable_Bonds:                   7
##########                       Formal_Charge:           0.0199998
##########                     HBond_Acceptors:                   7
##########                        HBond_Donors:                   1
##########                         Heavy_Atoms:                  27
##########                          Grid_Score:          -31.327841
##########                     Grid_vdw_energy:          -31.001896
##########                      Grid_es_energy:           -0.325945
##########           Internal_energy_repulsive:           18.423311

@<TRIPOS>MOLECULE
ZINC001327099466
 57 60 1 0 0
SMALL
USER_CHARGES


@<TRIPOS>ATOM
      1 O1         -3.5413    4.0481   50.6423 O.2     1  ZINC001327099466   -0.4800
      2 C2         -2.3602    3.8500   50.4446 C.2     1  ZINC001327099466    0.5300
      3 N3         -1.5489    3.5314   51.4727 N.am    1  ZINC001327099466   -0.6000
      4 C4         -2.0672    3.4347   52.7688 C.2     1  ZINC001327099466    0.2900
      5 N5         -3.3388    3.4538   53.0944 N.2     1  ZINC001327099466   -0.3100
      6 N6         -3.4351    3.3316   54.4865 N.pl3   1  ZINC001327099466   -0.3500
      7 C7         -4.6762    3.3082   55.2644 C.3     1  ZINC001327099466    0.1700
      8 C8         -4.4855    2.4296   56.5025 C.3     1  ZINC001327099466   -0.1300
      9 C9         -5.7818    2.4053   57.3150 C.3     1  ZINC001327099466   -0.1200
     10 C10        -6.1382    3.8283   57.7494 C.3     1  ZINC001327099466   -0.1300
     11 C11        -6.3288    4.7068   56.5114 C.3     1  ZINC001327099466   -0.1200
     12 C12        -5.0326    4.7313   55.6989 C.3     1  ZINC001327099466   -0.1300
     13 C13        -2.1844    3.2385   54.9857 C.2     1  ZINC001327099466    0.0700
     14 C14        -1.3183    3.2940   53.9488 C.2     1  ZINC001327099466   -0.2700
     15 C15        -1.8069    3.9533   49.0613 C.2     1  ZINC001327099466    0.5100
     16 O16        -1.2976    4.9894   48.6871 O.2     1  ZINC001327099466   -0.5100
     17 N17        -1.8734    2.8958   48.2282 N.am    1  ZINC001327099466   -0.5700
     18 C18        -2.4870    1.6349   48.6667 C.3     1  ZINC001327099466    0.0400
     19 C19        -1.4923    0.4940   48.4305 C.3     1  ZINC001327099466   -0.1300
     20 C20        -1.0513    0.5023   46.9650 C.3     1  ZINC001327099466   -0.1200
     21 C21        -0.3521    1.8262   46.6484 C.3     1  ZINC001327099466    0.0800
     22 H22         0.5071    1.9506   47.3076 H       1  ZINC001327099466    0.0700
     23 O23         0.0872    1.8204   45.2885 O.3     1  ZINC001327099466   -0.3500
     24 C24         1.4514    1.4298   45.1200 C.3     1  ZINC001327099466    0.0600
     25 C25         1.8607    1.2405   43.6498 C.3     1  ZINC001327099466   -0.1600
     26 C26         2.2316    2.7330   43.6429 C.3     1  ZINC001327099466   -0.1400
     27 C27         2.4390    2.6078   45.1615 C.3     1  ZINC001327099466   -0.1400
     28 C28        -1.3388    2.9840   46.8625 C.3     1  ZINC001327099466    0.0900
     29 H29        -0.6058    3.3692   51.3142 H       1  ZINC001327099466    0.4300
     30 H30        -5.4815    2.9029   54.6518 H       1  ZINC001327099466    0.1000
     31 H31        -4.2316    1.4158   56.1930 H       1  ZINC001327099466    0.0700
     32 H32        -3.6803    2.8350   57.1151 H       1  ZINC001327099466    0.0700
     33 H33        -6.5870    2.0000   56.7024 H       1  ZINC001327099466    0.0700
     34 H34        -5.6459    1.7794   58.1970 H       1  ZINC001327099466    0.0700
     35 H35        -7.0616    3.8110   58.3283 H       1  ZINC001327099466    0.0700
     36 H36        -5.3329    4.2337   58.3621 H       1  ZINC001327099466    0.0700
     37 H37        -7.1341    4.3015   55.8987 H       1  ZINC001327099466    0.0700
     38 H38        -6.5828    5.7207   56.8209 H       1  ZINC001327099466    0.0700
     39 H39        -4.2273    5.1366   56.3115 H       1  ZINC001327099466    0.0700
     40 H40        -5.1684    5.3572   54.8168 H       1  ZINC001327099466    0.0700
     41 H41        -1.9222    3.1342   56.0282 H       1  ZINC001327099466    0.1800
     42 H42        -0.2415    3.2447   54.0164 H       1  ZINC001327099466    0.1700
     43 H43        -2.7283    1.6955   49.7279 H       1  ZINC001327099466    0.1600
     44 H44        -3.3957    1.4520   48.0931 H       1  ZINC001327099466    0.0700
     45 H45        -0.6225    0.6310   49.0729 H       1  ZINC001327099466    0.0700
     46 H46        -1.9695   -0.4583   48.6615 H       1  ZINC001327099466    0.0900
     47 H47        -0.3624   -0.3237   46.7885 H       1  ZINC001327099466    0.0800
     48 H48        -1.9246    0.3901   46.3224 H       1  ZINC001327099466    0.0800
     49 H49         1.7363    0.5982   45.7645 H       1  ZINC001327099466    0.0700
     50 H50         2.7156    0.5776   43.5166 H       1  ZINC001327099466    0.0900
     51 H51         1.0267    0.9948   42.9925 H       1  ZINC001327099466    0.0700
     52 H52         3.1471    2.9528   43.0938 H       1  ZINC001327099466    0.0700
     53 H53         1.4043    3.3872   43.3677 H       1  ZINC001327099466    0.0800
     54 H54         2.0718    3.4659   45.7245 H       1  ZINC001327099466    0.0800
     55 H55         3.4519    2.3186   45.4415 H       1  ZINC001327099466    0.0900
     56 H56        -2.1521    2.9091   46.1406 H       1  ZINC001327099466    0.0900
     57 H57        -0.8205    3.9343   46.7349 H       1  ZINC001327099466    0.1000
@<TRIPOS>BOND
     1     1     2    2
     2     2     3   am
     3     2    15    1
     4     3     4    1
     5     3    29    1
     6     4    14    1
     7     4     5    2
     8     5     6    1
     9     6     7    1
    10     6    13    1
    11     7    12    1
    12     7     8    1
    13     7    30    1
    14     8     9    1
    15     8    31    1
    16     8    32    1
    17     9    10    1
    18     9    33    1
    19     9    34    1
    20    10    11    1
    21    10    35    1
    22    10    36    1
    23    11    12    1
    24    11    37    1
    25    11    38    1
    26    12    39    1
    27    12    40    1
    28    13    14    2
    29    13    41    1
    30    14    42    1
    31    15    16    2
    32    15    17   am
    33    17    28    1
    34    17    18    1
    35    18    19    1
    36    18    43    1
    37    18    44    1
    38    19    20    1
    39    19    45    1
    40    19    46    1
    41    20    21    1
    42    20    47    1
    43    20    48    1
    44    21    22    1
    45    21    23    1
    46    21    28    1
    47    23    24    1
    48    24    27    1
    49    24    25    1
    50    24    49    1
    51    25    26    1
    52    25    50    1
    53    25    51    1
    54    26    27    1
    55    26    52    1
    56    26    53    1
    57    27    54    1
    58    27    55    1
    59    28    56    1
    60    28    57    1
@<TRIPOS>SUBSTRUCTURE
     1 ZINC001327099466        1 TEMP              0 ****  ****    0 ROOT


##########                                Name:    ZINC000876376999
##########                DOCK_Rotatable_Bonds:                   7
##########                         Heavy_Atoms:                  24
##########                    Molecular_Weight:             358.502
##########                DOCK_Rotatable_Bonds:                   7
##########                       Formal_Charge:          -0.0299994
##########                     HBond_Acceptors:                   7
##########                        HBond_Donors:                   2
##########                         Heavy_Atoms:                  24
##########                          Grid_Score:          -31.326153
##########                     Grid_vdw_energy:          -30.052284
##########                      Grid_es_energy:           -1.273869
##########           Internal_energy_repulsive:           34.129871

@<TRIPOS>MOLECULE
ZINC000876376999
 54 56 1 0 0
SMALL
USER_CHARGES


@<TRIPOS>ATOM
      1 C1         -1.4570    2.7211   56.1582 C.3     1  ZINC000876376999   -0.1500
      2 C2         -2.7527    2.5413   55.3647 C.3     1  ZINC000876376999   -0.1100
      3 C3         -2.8479    3.6268   54.2908 C.3     1  ZINC000876376999   -0.0700
      4 C4         -3.9583    3.2695   53.3006 C.3     1  ZINC000876376999    0.0900
      5 O5         -5.2164    3.2624   53.9781 O.3     1  ZINC000876376999   -0.5600
      6 C6         -3.1635    4.9714   54.9499 C.3     1  ZINC000876376999   -0.1100
      7 C7         -3.2914    6.0517   53.8735 C.3     1  ZINC000876376999   -0.1400
      8 C8         -1.9611    6.1808   53.1247 C.3     1  ZINC000876376999    0.1100
      9 N9         -1.5777    4.8590   52.6105 N.am    1  ZINC000876376999   -0.6300
     10 C10        -1.2908    4.6867   51.3050 C.2     1  ZINC000876376999    0.7100
     11 O11        -1.3481    5.6302   50.5402 O.2     1  ZINC000876376999   -0.5800
     12 N12        -0.9405    3.4684   50.8471 N.am    1  ZINC000876376999   -0.7500
     13 C13        -0.6287    3.2811   49.4280 C.3     1  ZINC000876376999    0.1400
     14 C14        -0.9726    1.8450   49.0142 C.3     1  ZINC000876376999   -0.1100
     15 C15        -2.3274    1.7975   48.3618 C.3     1  ZINC000876376999   -0.1100
     16 C16        -2.3335    1.7713   46.8289 C.3     1  ZINC000876376999   -0.5200
     17 H17        -3.3421    1.7652   46.3925 H       1  ZINC000876376999    0.1500
     18 C18        -1.4683    2.9551   46.3392 C.3     1  ZINC000876376999   -0.1200
     19 C19         0.0138    2.5969   46.3506 C.3     1  ZINC000876376999   -0.1200
     20 C20         0.2357    1.1503   46.8486 C.3     1  ZINC000876376999   -0.5300
     21 H21         1.1362    0.6827   46.4267 H       1  ZINC000876376999    0.1500
     22 C22         0.2201    1.1816   48.3813 C.3     1  ZINC000876376999   -0.1000
     23 S23        -1.3232    0.3107   46.3427 S.o2    1  ZINC000876376999    2.3700
     24 O24        -1.5943   -0.7837   47.2063 O.2     1  ZINC000876376999   -0.9300
     25 O25        -1.3530    0.1425   44.9322 O.2     1  ZINC000876376999   -0.9300
     26 C26        -1.5126    3.7283   53.5467 C.3     1  ZINC000876376999    0.1400
     27 H27        -0.6029    2.5579   55.5010 H       1  ZINC000876376999    0.0500
     28 H28        -1.4160    3.7323   56.5628 H       1  ZINC000876376999    0.0600
     29 H29        -1.4289    2.0011   56.9760 H       1  ZINC000876376999    0.0500
     30 H30        -2.7552    1.5598   54.8906 H       1  ZINC000876376999    0.0600
     31 H31        -3.6056    2.6213   56.0387 H       1  ZINC000876376999    0.0700
     32 H32        -3.9815    4.0076   52.4989 H       1  ZINC000876376999    0.0500
     33 H33        -3.7664    2.2824   52.8801 H       1  ZINC000876376999    0.0400
     34 H34        -5.2679    2.6275   54.7057 H       1  ZINC000876376999    0.3800
     35 H35        -4.1010    4.8946   55.5006 H       1  ZINC000876376999    0.0700
     36 H36        -2.3598    5.2365   55.6369 H       1  ZINC000876376999    0.0700
     37 H37        -4.0783    5.7749   53.1720 H       1  ZINC000876376999    0.0700
     38 H38        -3.5391    7.0043   54.3417 H       1  ZINC000876376999    0.0800
     39 H39        -2.0756    6.8770   52.2939 H       1  ZINC000876376999    0.0700
     40 H40        -1.1922    6.5448   53.8060 H       1  ZINC000876376999    0.0700
     41 H41        -0.8950    2.7157   51.4572 H       1  ZINC000876376999    0.3900
     42 H42        -1.2141    3.9810   48.8318 H       1  ZINC000876376999    0.0800
     43 H43         0.4333    3.4624   49.2623 H       1  ZINC000876376999    0.0700
     44 H44        -1.1093    1.3110   49.9968 H       1  ZINC000876376999    0.0900
     45 H45        -2.8698    0.9089   48.7295 H       1  ZINC000876376999    0.0900
     46 H46        -2.9185    2.6664   48.6999 H       1  ZINC000876376999    0.0900
     47 H47        -1.7584    3.2007   45.3129 H       1  ZINC000876376999    0.0800
     48 H48        -1.6439    3.8269   46.9627 H       1  ZINC000876376999    0.0900
     49 H49         0.3990    2.6793   45.3295 H       1  ZINC000876376999    0.0800
     50 H50         0.5590    3.2944   46.9798 H       1  ZINC000876376999    0.0900
     51 H51         1.1379    1.6858   48.7310 H       1  ZINC000876376999    0.0900
     52 H52         0.2912    0.1446   48.7537 H       1  ZINC000876376999    0.0900
     53 H53        -0.7071    3.8925   54.2624 H       1  ZINC000876376999    0.0600
     54 H54        -1.3311    2.8064   52.9942 H       1  ZINC000876376999    0.1000
@<TRIPOS>BOND
     1     1     2    1
     2     1    27    1
     3     1    28    1
     4     1    29    1
     5     2     3    1
     6     2    30    1
     7     2    31    1
     8     3    26    1
     9     3     4    1
    10     3     6    1
    11     4     5    1
    12     4    32    1
    13     4    33    1
    14     5    34    1
    15     6     7    1
    16     6    35    1
    17     6    36    1
    18     7     8    1
    19     7    37    1
    20     7    38    1
    21     8     9    1
    22     8    39    1
    23     8    40    1
    24     9    10   am
    25     9    26    1
    26    10    11    2
    27    10    12   am
    28    12    13    1
    29    12    41    1
    30    13    14    1
    31    13    42    1
    32    13    43    1
    33    14    22    1
    34    14    15    1
    35    14    44    1
    36    15    16    1
    37    15    45    1
    38    15    46    1
    39    16    17    1
    40    16    23    1
    41    16    18    1
    42    18    19    1
    43    18    47    1
    44    18    48    1
    45    19    20    1
    46    19    49    1
    47    19    50    1
    48    20    21    1
    49    20    22    1
    50    20    23    1
    51    22    51    1
    52    22    52    1
    53    23    24    2
    54    23    25    2
    55    26    53    1
    56    26    54    1
@<TRIPOS>SUBSTRUCTURE
     1 ZINC000876376999        1 TEMP              0 ****  ****    0 ROOT


##########                                Name:    ZINC000572148596
##########                DOCK_Rotatable_Bonds:                   4
##########                         Heavy_Atoms:                  26
##########                    Molecular_Weight:             371.463
##########                DOCK_Rotatable_Bonds:                   4
##########                       Formal_Charge:          -0.0199999
##########                     HBond_Acceptors:                   8
##########                        HBond_Donors:                   0
##########                         Heavy_Atoms:                  26
##########                          Grid_Score:          -31.315285
##########                     Grid_vdw_energy:          -31.593971
##########                      Grid_es_energy:            0.278687
##########           Internal_energy_repulsive:            6.791708

@<TRIPOS>MOLECULE
ZINC000572148596
 47 50 1 0 0
SMALL
USER_CHARGES


@<TRIPOS>ATOM
      1 C1         -6.9873    3.5565   55.2485 C.3     1  ZINC000572148596   -0.1400
      2 C2         -6.2861    3.3087   56.5856 C.3     1  ZINC000572148596    0.0800
      3 H3         -6.3916    4.1890   57.2198 H       1  ZINC000572148596    0.1200
      4 C4         -6.9118    2.1199   57.2683 C.2     1  ZINC000572148596    0.1800
      5 N5         -6.4058    1.4515   58.2625 N.2     1  ZINC000572148596   -0.3500
      6 O6         -7.1483    0.5501   58.5900 O.3     1  ZINC000572148596    0.0900
      7 C7         -8.2395    0.5563   57.8084 C.2     1  ZINC000572148596    0.2300
      8 C8         -9.3821   -0.3755   57.8816 C.ar    1  ZINC000572148596   -0.1200
      9 C9         -9.5245   -1.2418   58.9753 C.ar    1  ZINC000572148596   -0.0100
     10 C10       -10.6000   -2.0894   59.0016 C.ar    1  ZINC000572148596   -0.1900
     11 C11       -11.5137   -2.0671   57.9505 C.ar    1  ZINC000572148596    0.3400
     12 N12       -12.6037   -2.9235   57.9742 N.3     1  ZINC000572148596   -0.4700
     13 C13       -13.1505   -3.1179   56.6235 C.3     1  ZINC000572148596    0.0300
     14 C14       -14.3115   -4.1138   56.6872 C.3     1  ZINC000572148596    0.0900
     15 H15       -14.7567   -4.2178   55.6976 H       1  ZINC000572148596    0.1100
     16 C16       -13.7929   -5.4737   57.1593 C.3     1  ZINC000572148596   -0.1800
     17 O17       -15.2962   -3.6323   57.6057 O.3     1  ZINC000572148596   -0.3700
     18 C18       -14.7982   -3.4322   58.9313 C.3     1  ZINC000572148596    0.0800
     19 H19       -14.4429   -4.3809   59.3336 H       1  ZINC000572148596    0.0700
     20 C20       -15.9173   -2.8871   59.8207 C.3     1  ZINC000572148596   -0.1400
     21 C21       -13.6420   -2.4294   58.8903 C.3     1  ZINC000572148596    0.0300
     22 N22       -11.3558   -1.2380   56.9281 N.ar    1  ZINC000572148596   -0.5200
     23 C23       -10.3393   -0.4030   56.8665 C.ar    1  ZINC000572148596    0.1900
     24 N24        -8.0944    1.5633   56.9641 N.2     1  ZINC000572148596   -0.4700
     25 C25        -4.8238    3.0367   56.3432 C.2     1  ZINC000572148596    0.0400
     26 N26        -4.3111    1.8675   56.1569 N.2     1  ZINC000572148596   -0.4500
     27 C27        -3.0099    1.8067   55.9575 C.2     1  ZINC000572148596    0.0400
     28 C28        -2.3904    2.9908   55.9767 C.2     1  ZINC000572148596   -0.2500
     29 S29        -3.6050    4.2335   56.2679 S.3     1  ZINC000572148596    0.1400
     30 H30        -6.8817    2.6763   54.6143 H       1  ZINC000572148596    0.0800
     31 H31        -8.0449    3.7533   55.4239 H       1  ZINC000572148596    0.0700
     32 H32        -6.5347    4.4164   54.7547 H       1  ZINC000572148596    0.0800
     33 H33        -8.8023   -1.2408   59.7783 H       1  ZINC000572148596    0.1500
     34 H34       -10.7380   -2.7691   59.8295 H       1  ZINC000572148596    0.1500
     35 H35       -13.5095   -2.1647   56.2354 H       1  ZINC000572148596    0.0600
     36 H36       -12.3717   -3.5083   55.9683 H       1  ZINC000572148596    0.1000
     37 H37       -13.3492   -5.3694   58.1495 H       1  ZINC000572148596    0.0700
     38 H38       -14.6199   -6.1823   57.2045 H       1  ZINC000572148596    0.0600
     39 H39       -13.0399   -5.8380   56.4604 H       1  ZINC000572148596    0.0700
     40 H40       -16.7411   -3.6003   59.8463 H       1  ZINC000572148596    0.0700
     41 H41       -15.5371   -2.7348   60.8308 H       1  ZINC000572148596    0.0700
     42 H42       -16.2711   -1.9377   59.4187 H       1  ZINC000572148596    0.0600
     43 H43       -13.2221   -2.3171   59.8898 H       1  ZINC000572148596    0.1000
     44 H44       -14.0090   -1.4652   58.5385 H       1  ZINC000572148596    0.0600
     45 H45       -10.2404    0.2592   56.0190 H       1  ZINC000572148596    0.1700
     46 H46        -2.4869    0.8763   55.7924 H       1  ZINC000572148596    0.1800
     47 H47        -1.3327    3.1569   55.8350 H       1  ZINC000572148596    0.1800
@<TRIPOS>BOND
     1     1     2    1
     2     1    30    1
     3     1    31    1
     4     1    32    1
     5     2     3    1
     6     2     4    1
     7     2    25    1
     8     4    24    1
     9     4     5    2
    10     5     6    1
    11     6     7    1
    12     7     8    1
    13     7    24    2
    14     8    23   ar
    15     8     9   ar
    16     9    10   ar
    17     9    33    1
    18    10    11   ar
    19    10    34    1
    20    11    12    1
    21    11    22   ar
    22    12    21    1
    23    12    13    1
    24    13    14    1
    25    13    35    1
    26    13    36    1
    27    14    15    1
    28    14    16    1
    29    14    17    1
    30    16    37    1
    31    16    38    1
    32    16    39    1
    33    17    18    1
    34    18    19    1
    35    18    20    1
    36    18    21    1
    37    20    40    1
    38    20    41    1
    39    20    42    1
    40    21    43    1
    41    21    44    1
    42    22    23   ar
    43    23    45    1
    44    25    29    1
    45    25    26    2
    46    26    27    1
    47    27    28    2
    48    27    46    1
    49    28    29    1
    50    28    47    1
@<TRIPOS>SUBSTRUCTURE
     1 ZINC000572148596        1 TEMP              0 ****  ****    0 ROOT


##########                                Name:    ZINC000518242403
##########                DOCK_Rotatable_Bonds:                   6
##########                         Heavy_Atoms:                  27
##########                    Molecular_Weight:             370.405
##########                DOCK_Rotatable_Bonds:                   6
##########                       Formal_Charge:          -0.0200004
##########                     HBond_Acceptors:                   7
##########                        HBond_Donors:                   1
##########                         Heavy_Atoms:                  27
##########                          Grid_Score:          -31.306826
##########                     Grid_vdw_energy:          -30.804379
##########                      Grid_es_energy:           -0.502448
##########           Internal_energy_repulsive:           18.396538

@<TRIPOS>MOLECULE
ZINC000518242403
 49 52 1 0 0
SMALL
USER_CHARGES


@<TRIPOS>ATOM
      1 C1          1.0054   -0.3958   48.1284 C.3     1  ZINC000518242403   -0.1800
      2 C2          1.3219    1.0443   47.7201 C.3     1  ZINC000518242403    0.1000
      3 N3          0.0833    1.8258   47.6866 N.am    1  ZINC000518242403   -0.6200
      4 C4         -0.5127    2.1993   46.4015 C.3     1  ZINC000518242403    0.1500
      5 C5         -0.0745    1.2021   45.3270 C.3     1  ZINC000518242403    0.0300
      6 H6          0.2388    0.2698   45.7968 H       1  ZINC000518242403    0.0900
      7 C7         -1.2402    0.9311   44.3662 C.3     1  ZINC000518242403    0.0300
      8 O8         -0.7930    0.0072   43.3681 O.3     1  ZINC000518242403   -0.3000
      9 C9          0.4167    0.2608   42.7984 C.ar    1  ZINC000518242403    0.0500
     10 C10         0.7481   -0.3561   41.6015 C.ar    1  ZINC000518242403   -0.1100
     11 C11         1.9745   -0.1110   41.0124 C.ar    1  ZINC000518242403   -0.1200
     12 C12         2.8733    0.7494   41.6141 C.ar    1  ZINC000518242403   -0.1200
     13 C13         2.5485    1.3689   42.8065 C.ar    1  ZINC000518242403   -0.1100
     14 C14         1.3197    1.1283   43.4023 C.ar    1  ZINC000518242403    0.0500
     15 O15         1.0113    1.7514   44.5725 O.3     1  ZINC000518242403   -0.3000
     16 C16        -0.5080    2.2011   48.8381 C.2     1  ZINC000518242403    0.7100
     17 O17        -0.0126    1.8923   49.9048 O.2     1  ZINC000518242403   -0.5700
     18 N18        -1.6485    2.9186   48.8074 N.am    1  ZINC000518242403   -0.6800
     19 C19        -2.2633    3.3088   50.0047 C.ar    1  ZINC000518242403    0.1700
     20 C20        -3.3029    2.5536   50.5292 C.ar    1  ZINC000518242403   -0.1000
     21 C21        -3.9100    2.9394   51.7128 C.ar    1  ZINC000518242403    0.0500
     22 C22        -3.4754    4.0854   52.3744 C.ar    1  ZINC000518242403    0.0200
     23 C23        -2.4377    4.8368   51.8470 C.ar    1  ZINC000518242403   -0.0800
     24 C24        -1.8288    4.4477   50.6693 C.ar    1  ZINC000518242403   -0.1000
     25 C25        -0.7004    5.2676   50.0986 C.3     1  ZINC000518242403   -0.1100
     26 O26        -4.2259    4.2476   53.5042 O.3     1  ZINC000518242403   -0.3100
     27 C27        -5.3899    3.4217   53.3140 C.3     1  ZINC000518242403    0.2100
     28 O28        -4.9318    2.3839   52.4274 O.3     1  ZINC000518242403   -0.3100
     29 H29         0.5459   -0.4006   49.1168 H       1  ZINC000518242403    0.0600
     30 H30         0.3179   -0.8355   47.4059 H       1  ZINC000518242403    0.0600
     31 H31         1.9271   -0.9773   48.1534 H       1  ZINC000518242403    0.0700
     32 H32         2.0095    1.4840   48.4427 H       1  ZINC000518242403    0.1000
     33 H33         1.7815    1.0491   46.7318 H       1  ZINC000518242403    0.0700
     34 H34        -1.5993    2.1866   46.4875 H       1  ZINC000518242403    0.1100
     35 H35        -0.1818    3.2003   46.1247 H       1  ZINC000518242403    0.0900
     36 H36        -2.0775    0.5014   44.9162 H       1  ZINC000518242403    0.1300
     37 H37        -1.5501    1.8625   43.8924 H       1  ZINC000518242403    0.0800
     38 H38         0.0476   -1.0290   41.1294 H       1  ZINC000518242403    0.1300
     39 H39         2.2305   -0.5923   40.0801 H       1  ZINC000518242403    0.1300
     40 H40         3.8309    0.9379   41.1521 H       1  ZINC000518242403    0.1300
     41 H41         3.2526    2.0408   43.2747 H       1  ZINC000518242403    0.1300
     42 H42        -2.0438    3.1649   47.9565 H       1  ZINC000518242403    0.4100
     43 H43        -3.6387    1.6655   50.0145 H       1  ZINC000518242403    0.1500
     44 H44        -2.1007    5.7254   52.3601 H       1  ZINC000518242403    0.1400
     45 H45         0.2482    4.9062   50.4956 H       1  ZINC000518242403    0.0800
     46 H46        -0.6981    5.1764   49.0124 H       1  ZINC000518242403    0.0700
     47 H47        -0.8352    6.3133   50.3750 H       1  ZINC000518242403    0.0800
     48 H48        -5.7179    2.9976   54.2631 H       1  ZINC000518242403    0.1300
     49 H49        -6.1939    3.9939   52.8509 H       1  ZINC000518242403    0.0900
@<TRIPOS>BOND
     1     1     2    1
     2     1    29    1
     3     1    30    1
     4     1    31    1
     5     2     3    1
     6     2    32    1
     7     2    33    1
     8     3     4    1
     9     3    16   am
    10     4     5    1
    11     4    34    1
    12     4    35    1
    13     5     6    1
    14     5    15    1
    15     5     7    1
    16     7     8    1
    17     7    36    1
    18     7    37    1
    19     8     9    1
    20     9    14   ar
    21     9    10   ar
    22    10    11   ar
    23    10    38    1
    24    11    12   ar
    25    11    39    1
    26    12    13   ar
    27    12    40    1
    28    13    14   ar
    29    13    41    1
    30    14    15    1
    31    16    17    2
    32    16    18   am
    33    18    19    1
    34    18    42    1
    35    19    24   ar
    36    19    20   ar
    37    20    21   ar
    38    20    43    1
    39    21    28    1
    40    21    22   ar
    41    22    23   ar
    42    22    26    1
    43    23    24   ar
    44    23    44    1
    45    24    25    1
    46    25    45    1
    47    25    46    1
    48    25    47    1
    49    26    27    1
    50    27    28    1
    51    27    48    1
    52    27    49    1
@<TRIPOS>SUBSTRUCTURE
     1 ZINC000518242403        1 TEMP              0 ****  ****    0 ROOT


##########                                Name:    ZINC000826435081
##########                DOCK_Rotatable_Bonds:                   7
##########                         Heavy_Atoms:                  28
##########                    Molecular_Weight:             388.361
##########                DOCK_Rotatable_Bonds:                   7
##########                       Formal_Charge:           0.0099996
##########                     HBond_Acceptors:                  12
##########                        HBond_Donors:                   3
##########                         Heavy_Atoms:                  28
##########                          Grid_Score:          -31.302876
##########                     Grid_vdw_energy:          -28.908655
##########                      Grid_es_energy:           -2.394220
##########           Internal_energy_repulsive:            7.653387

@<TRIPOS>MOLECULE
ZINC000826435081
 45 48 1 0 0
SMALL
USER_CHARGES


@<TRIPOS>ATOM
      1 O1         -6.6521    2.5964   56.4508 O.2     1  ZINC000826435081   -0.5700
      2 C2         -5.7626    2.8630   57.2358 C.2     1  ZINC000826435081    0.7200
      3 N3         -4.6023    3.3824   56.7883 N.am    1  ZINC000826435081   -0.7300
      4 C4         -4.4103    3.6200   55.3556 C.3     1  ZINC000826435081    0.1500
      5 C5         -2.9210    3.5260   55.0180 C.3     1  ZINC000826435081    0.0400
      6 H6         -2.7819    3.6555   53.9446 H       1  ZINC000826435081    0.0800
      7 C7         -2.3855    2.1553   55.4418 C.3     1  ZINC000826435081    0.0300
      8 O8         -0.9717    2.1164   55.2259 O.3     1  ZINC000826435081   -0.3800
      9 C9         -0.2568    3.1374   55.9285 C.3     1  ZINC000826435081    0.0200
     10 C10        -0.7922    4.5081   55.5046 C.3     1  ZINC000826435081    0.0200
     11 O11        -2.2063    4.5480   55.7193 O.3     1  ZINC000826435081   -0.3700
     12 N12        -5.9392    2.6444   58.5540 N.am    1  ZINC000826435081   -0.6400
     13 C13        -7.1455    2.1044   59.0192 C.2     1  ZINC000826435081    0.3300
     14 N14        -7.6253    0.9206   58.7184 N.2     1  ZINC000826435081   -0.2800
     15 N15        -8.8475    0.7614   59.3841 N.pl3   1  ZINC000826435081   -0.3300
     16 C16        -9.6764   -0.3645   59.3253 C.ar    1  ZINC000826435081    0.2200
     17 C17       -10.3544   -0.6693   58.1545 C.ar    1  ZINC000826435081   -0.1300
     18 C18       -11.1729   -1.7811   58.0969 C.ar    1  ZINC000826435081   -0.0500
     19 C19       -11.3225   -2.5966   59.2040 C.ar    1  ZINC000826435081   -0.1500
     20 C20       -10.6531   -2.3058   60.3787 C.ar    1  ZINC000826435081    0.1500
     21 F21       -10.8015   -3.1051   61.4577 F       1  ZINC000826435081   -0.1100
     22 C22        -9.8198   -1.1899   60.4457 C.ar    1  ZINC000826435081   -0.0500
     23 C23        -9.0988   -0.8724   61.7028 C.2     1  ZINC000826435081    0.2100
     24 N24        -7.7933   -0.8867   61.8872 N.2     1  ZINC000826435081   -0.2800
     25 N25        -7.5644   -0.5536   63.1109 N.pl3   1  ZINC000826435081   -0.2300
     26 N26        -8.6827   -0.3288   63.7076 N.2     1  ZINC000826435081   -0.0500
     27 N27        -9.6477   -0.5094   62.8711 N.2     1  ZINC000826435081   -0.2300
     28 C28        -9.0858    1.8927   60.0967 C.2     1  ZINC000826435081    0.0700
     29 C29        -8.0471    2.7344   59.8930 C.2     1  ZINC000826435081   -0.2400
     30 H30        -3.8941    3.5989   57.4150 H       1  ZINC000826435081    0.4000
     31 H31        -4.9599    2.8704   54.7861 H       1  ZINC000826435081    0.0800
     32 H32        -4.7789    4.6133   55.0993 H       1  ZINC000826435081    0.0900
     33 H33        -2.5972    1.9924   56.4986 H       1  ZINC000826435081    0.0700
     34 H34        -2.8661    1.3772   54.8489 H       1  ZINC000826435081    0.1100
     35 H35        -0.3969    3.0076   57.0016 H       1  ZINC000826435081    0.0600
     36 H36         0.8042    3.0706   55.6879 H       1  ZINC000826435081    0.1100
     37 H37        -0.3116    5.2863   56.0976 H       1  ZINC000826435081    0.1100
     38 H38        -0.5806    4.6710   54.4479 H       1  ZINC000826435081    0.0600
     39 H39        -5.2311    2.8609   59.1806 H       1  ZINC000826435081    0.4100
     40 H40       -10.2426   -0.0364   57.2865 H       1  ZINC000826435081    0.1500
     41 H41       -11.6988   -2.0143   57.1828 H       1  ZINC000826435081    0.1500
     42 H42       -11.9647   -3.4634   59.1510 H       1  ZINC000826435081    0.1500
     43 H43        -6.6870   -0.4833   63.5185 H       1  ZINC000826435081    0.4800
     44 H44        -9.9479    2.0840   60.7186 H       1  ZINC000826435081    0.1800
     45 H45        -7.9344    3.7198   60.3203 H       1  ZINC000826435081    0.1800
@<TRIPOS>BOND
     1     1     2    2
     2     2     3   am
     3     2    12   am
     4     3     4    1
     5     3    30    1
     6     4     5    1
     7     4    31    1
     8     4    32    1
     9     5     6    1
    10     5    11    1
    11     5     7    1
    12     7     8    1
    13     7    33    1
    14     7    34    1
    15     8     9    1
    16     9    10    1
    17     9    35    1
    18     9    36    1
    19    10    11    1
    20    10    37    1
    21    10    38    1
    22    12    13    1
    23    12    39    1
    24    13    29    1
    25    13    14    2
    26    14    15    1
    27    15    16    1
    28    15    28    1
    29    16    22   ar
    30    16    17   ar
    31    17    18   ar
    32    17    40    1
    33    18    19   ar
    34    18    41    1
    35    19    20   ar
    36    19    42    1
    37    20    21    1
    38    20    22   ar
    39    22    23    1
    40    23    27    1
    41    23    24    2
    42    24    25    1
    43    25    26    1
    44    25    43    1
    45    26    27    2
    46    28    29    2
    47    28    44    1
    48    29    45    1
@<TRIPOS>SUBSTRUCTURE
     1 ZINC000826435081        1 TEMP              0 ****  ****    0 ROOT


##########                                Name:    ZINC000163855860
##########                DOCK_Rotatable_Bonds:                   6
##########                         Heavy_Atoms:                  28
##########                    Molecular_Weight:             398.483
##########                DOCK_Rotatable_Bonds:                   6
##########                       Formal_Charge:          -0.0100004
##########                     HBond_Acceptors:                   7
##########                        HBond_Donors:                   1
##########                         Heavy_Atoms:                  28
##########                          Grid_Score:          -31.296555
##########                     Grid_vdw_energy:          -27.662664
##########                      Grid_es_energy:           -3.633891
##########           Internal_energy_repulsive:           15.557504

@<TRIPOS>MOLECULE
ZINC000163855860
 50 53 1 0 0
SMALL
USER_CHARGES


@<TRIPOS>ATOM
      1 C1         -9.9495   -2.2934   59.8210 C.3     1  ZINC000163855860   -0.1300
      2 C2         -9.4822   -1.1685   58.9337 C.ar    1  ZINC000163855860   -0.0600
      3 C3         -8.3968   -0.3923   59.3083 C.ar    1  ZINC000163855860    0.1400
      4 N4         -7.7324   -0.6531   60.5121 N.am    1  ZINC000163855860   -0.6700
      5 C5         -7.9970    0.0927   61.6032 C.2     1  ZINC000163855860    0.5100
      6 O6         -8.8110    0.9896   61.5418 O.2     1  ZINC000163855860   -0.5100
      7 C7         -7.2815   -0.1881   62.8994 C.3     1  ZINC000163855860   -0.1300
      8 C8         -8.0632    0.4335   64.0585 C.3     1  ZINC000163855860   -0.1100
      9 H9         -8.1570    1.5119   63.9308 H       1  ZINC000163855860    0.1100
     10 C10        -9.4534   -0.2269   64.2018 C.3     1  ZINC000163855860    0.0600
     11 O11        -9.7034   -0.2401   65.6385 O.3     1  ZINC000163855860   -0.3500
     12 C12        -8.5435   -0.3448   66.3027 C.2     1  ZINC000163855860    0.4800
     13 O13        -8.4275   -0.7323   67.4412 O.2     1  ZINC000163855860   -0.4500
     14 C14        -7.4014    0.0952   65.4128 C.3     1  ZINC000163855860   -0.1800
     15 C15        -7.9645    0.6413   58.4857 C.ar    1  ZINC000163855860   -0.1100
     16 C16        -8.6167    0.9021   57.2954 C.ar    1  ZINC000163855860   -0.1100
     17 C17        -9.7016    0.1380   56.9155 C.ar    1  ZINC000163855860   -0.1000
     18 C18       -10.1438   -0.9019   57.7349 C.ar    1  ZINC000163855860   -0.1100
     19 C19       -11.3054   -1.7223   57.3302 C.2     1  ZINC000163855860    0.5700
     20 O20       -11.1590   -2.6363   56.5423 O.2     1  ZINC000163855860   -0.5300
     21 N21       -12.5265   -1.4569   57.8349 N.am    1  ZINC000163855860   -0.6100
     22 C22       -13.6950   -2.2606   57.4457 C.3     1  ZINC000163855860    0.1200
     23 C23       -14.2031   -3.0074   58.6889 C.3     1  ZINC000163855860   -0.0600
     24 C24       -14.2549   -2.0452   59.8565 C.2     1  ZINC000163855860   -0.1700
     25 C25       -13.6041   -0.8680   59.9192 C.2     1  ZINC000163855860   -0.1300
     26 C26       -13.8095   -0.1753   61.1081 C.2     1  ZINC000163855860   -0.1200
     27 C27       -14.6094   -0.7683   61.9887 C.2     1  ZINC000163855860   -0.2100
     28 S28       -15.1696   -2.3010   61.3372 S.3     1  ZINC000163855860    0.1100
     29 C29       -12.7266   -0.3528   58.7842 C.3     1  ZINC000163855860    0.1700
     30 H30       -10.7568   -1.9392   60.4620 H       1  ZINC000163855860    0.0700
     31 H31       -10.3098   -3.1169   59.2044 H       1  ZINC000163855860    0.0900
     32 H32        -9.1197   -2.6378   60.4384 H       1  ZINC000163855860    0.0700
     33 H33        -7.0814   -1.3706   60.5613 H       1  ZINC000163855860    0.4100
     34 H34        -6.2811    0.2433   62.8631 H       1  ZINC000163855860    0.1100
     35 H35        -7.2074   -1.2654   63.0476 H       1  ZINC000163855860    0.1100
     36 H36        -9.4341   -1.2437   63.8095 H       1  ZINC000163855860    0.0800
     37 H37       -10.2111    0.3657   63.6892 H       1  ZINC000163855860    0.1200
     38 H38        -6.9149    0.9776   65.8283 H       1  ZINC000163855860    0.1200
     39 H39        -6.6814   -0.7143   65.2916 H       1  ZINC000163855860    0.1200
     40 H40        -7.1160    1.2423   58.7774 H       1  ZINC000163855860    0.1500
     41 H41        -8.2761    1.7063   56.6601 H       1  ZINC000163855860    0.1300
     42 H42       -10.2086    0.3451   55.9847 H       1  ZINC000163855860    0.1300
     43 H43       -14.4785   -1.6062   57.0635 H       1  ZINC000163855860    0.0800
     44 H44       -13.4064   -2.9779   56.6773 H       1  ZINC000163855860    0.1000
     45 H45       -13.5274   -3.8298   58.9239 H       1  ZINC000163855860    0.0900
     46 H46       -15.2015   -3.3999   58.4955 H       1  ZINC000163855860    0.0900
     47 H47       -13.3489    0.7819   61.3030 H       1  ZINC000163855860    0.1400
     48 H48       -14.8749   -0.3689   62.9564 H       1  ZINC000163855860    0.1700
     49 H49       -11.7645   -0.0273   59.1799 H       1  ZINC000163855860    0.1000
     50 H50       -13.2204    0.4799   58.2833 H       1  ZINC000163855860    0.0900
@<TRIPOS>BOND
     1     1     2    1
     2     1    30    1
     3     1    31    1
     4     1    32    1
     5     2    18   ar
     6     2     3   ar
     7     3     4    1
     8     3    15   ar
     9     4     5   am
    10     4    33    1
    11     5     6    2
    12     5     7    1
    13     7     8    1
    14     7    34    1
    15     7    35    1
    16     8     9    1
    17     8    14    1
    18     8    10    1
    19    10    11    1
    20    10    36    1
    21    10    37    1
    22    11    12    1
    23    12    13    2
    24    12    14    1
    25    14    38    1
    26    14    39    1
    27    15    16   ar
    28    15    40    1
    29    16    17   ar
    30    16    41    1
    31    17    18   ar
    32    17    42    1
    33    18    19    1
    34    19    20    2
    35    19    21   am
    36    21    29    1
    37    21    22    1
    38    22    23    1
    39    22    43    1
    40    22    44    1
    41    23    24    1
    42    23    45    1
    43    23    46    1
    44    24    28    1
    45    24    25    2
    46    25    26    1
    47    25    29    1
    48    26    27    2
    49    26    47    1
    50    27    28    1
    51    27    48    1
    52    29    49    1
    53    29    50    1
@<TRIPOS>SUBSTRUCTURE
     1 ZINC000163855860        1 TEMP              0 ****  ****    0 ROOT


##########                                Name:    ZINC001169875900
##########                DOCK_Rotatable_Bonds:                   9
##########                         Heavy_Atoms:                  24
##########                    Molecular_Weight:             329.399
##########                DOCK_Rotatable_Bonds:                   9
##########                       Formal_Charge:          -0.0500002
##########                     HBond_Acceptors:                   6
##########                        HBond_Donors:                   1
##########                         Heavy_Atoms:                  24
##########                          Grid_Score:          -31.291822
##########                     Grid_vdw_energy:          -30.933331
##########                      Grid_es_energy:           -0.358493
##########           Internal_energy_repulsive:            6.114735

@<TRIPOS>MOLECULE
ZINC001169875900
 47 48 1 0 0
SMALL
USER_CHARGES


@<TRIPOS>ATOM
      1 C1         -0.2679   -1.1621   47.8134 C.3     1  ZINC001169875900   -0.1500
      2 C2         -1.0582   -0.7642   46.5652 C.3     1  ZINC001169875900   -0.1300
      3 C3         -0.8127    0.7140   46.2558 C.3     1  ZINC001169875900    0.0700
      4 O4         -2.0232    1.4484   46.4485 O.3     1  ZINC001169875900   -0.3100
      5 C5         -2.0917    2.2472   47.5443 C.ar    1  ZINC001169875900    0.2700
      6 N6         -2.5621    1.7598   48.6795 N.ar    1  ZINC001169875900   -0.5000
      7 C7         -2.6529    2.5005   49.7680 C.ar    1  ZINC001169875900    0.0600
      8 C8         -2.2480    3.8267   49.7584 C.ar    1  ZINC001169875900    0.1400
      9 N9         -2.3476    4.6068   50.9165 N.pl3   1  ZINC001169875900   -0.7400
     10 C10        -3.6148    4.6725   51.6486 C.3     1  ZINC001169875900    0.1800
     11 C11        -3.4814    3.9271   52.9516 C.ar    1  ZINC001169875900    0.1000
     12 C12        -4.5897    3.2974   53.4952 C.ar    1  ZINC001169875900   -0.1200
     13 C13        -4.4627    2.6129   54.6940 C.ar    1  ZINC001169875900   -0.0800
     14 C14        -3.2215    2.5833   55.3099 C.ar    1  ZINC001169875900   -0.1000
     15 C15        -2.1505    3.2390   54.7060 C.ar    1  ZINC001169875900    0.0900
     16 C16        -0.8179    3.2169   55.3513 C.2     1  ZINC001169875900    0.5200
     17 O17         0.1398    3.7015   54.7834 O.2     1  ZINC001169875900   -0.5000
     18 O18        -0.6680    2.6593   56.5680 O.3     1  ZINC001169875900   -0.3300
     19 C19         0.6808    2.5935   57.1014 C.3     1  ZINC001169875900    0.0600
     20 C20         0.6389    2.0402   58.5273 C.3     1  ZINC001169875900   -0.1500
     21 N21        -2.3137    3.8788   53.5545 N.ar    1  ZINC001169875900   -0.4200
     22 C22        -1.7412    4.3733   48.5807 C.ar    1  ZINC001169875900   -0.1200
     23 C23        -1.6616    3.5652   47.4606 C.ar    1  ZINC001169875900   -0.1000
     24 C24        -1.1207    4.1101   46.1638 C.3     1  ZINC001169875900   -0.1000
     25 H25        -0.5933   -0.5551   48.6583 H       1  ZINC001169875900    0.0600
     26 H26        -0.4429   -2.2151   48.0338 H       1  ZINC001169875900    0.0600
     27 H27         0.7954   -0.9995   47.6374 H       1  ZINC001169875900    0.0600
     28 H28        -2.1216   -0.9268   46.7413 H       1  ZINC001169875900    0.0700
     29 H29        -0.7328   -1.3711   45.7203 H       1  ZINC001169875900    0.0700
     30 H30        -0.4847    0.8191   45.2216 H       1  ZINC001169875900    0.0600
     31 H31        -0.0424    1.1017   46.9225 H       1  ZINC001169875900    0.0600
     32 H32        -3.0472    2.0690   50.6761 H       1  ZINC001169875900    0.1500
     33 H33        -1.5775    5.1037   51.2342 H       1  ZINC001169875900    0.4000
     34 H34        -3.8646    5.7142   51.8499 H       1  ZINC001169875900    0.0800
     35 H35        -4.4044    4.2187   51.0497 H       1  ZINC001169875900    0.0800
     36 H36        -5.5433    3.3398   52.9900 H       1  ZINC001169875900    0.1500
     37 H37        -5.3115    2.1139   55.1376 H       1  ZINC001169875900    0.1500
     38 H38        -3.0864    2.0597   56.2448 H       1  ZINC001169875900    0.1500
     39 H39         1.2875    1.9392   56.4754 H       1  ZINC001169875900    0.0700
     40 H40         1.1164    3.5926   57.1119 H       1  ZINC001169875900    0.0700
     41 H41         0.0322    2.6945   59.1532 H       1  ZINC001169875900    0.0700
     42 H42         0.2033    1.0412   58.5166 H       1  ZINC001169875900    0.0700
     43 H43         1.6516    1.9909   58.9276 H       1  ZINC001169875900    0.0800
     44 H44        -1.4184    5.4032   48.5433 H       1  ZINC001169875900    0.1400
     45 H45        -0.0426    3.9541   46.1258 H       1  ZINC001169875900    0.0700
     46 H46        -1.3360    5.1767   46.1000 H       1  ZINC001169875900    0.0700
     47 H47        -1.5924    3.5935   45.3278 H       1  ZINC001169875900    0.0700
@<TRIPOS>BOND
     1     1     2    1
     2     1    25    1
     3     1    26    1
     4     1    27    1
     5     2     3    1
     6     2    28    1
     7     2    29    1
     8     3     4    1
     9     3    30    1
    10     3    31    1
    11     4     5    1
    12     5    23   ar
    13     5     6   ar
    14     6     7   ar
    15     7     8   ar
    16     7    32    1
    17     8     9    1
    18     8    22   ar
    19     9    10    1
    20     9    33    1
    21    10    11    1
    22    10    34    1
    23    10    35    1
    24    11    21   ar
    25    11    12   ar
    26    12    13   ar
    27    12    36    1
    28    13    14   ar
    29    13    37    1
    30    14    15   ar
    31    14    38    1
    32    15    16    1
    33    15    21   ar
    34    16    17    2
    35    16    18    1
    36    18    19    1
    37    19    20    1
    38    19    39    1
    39    19    40    1
    40    20    41    1
    41    20    42    1
    42    20    43    1
    43    22    23   ar
    44    22    44    1
    45    23    24    1
    46    24    45    1
    47    24    46    1
    48    24    47    1
@<TRIPOS>SUBSTRUCTURE
     1 ZINC001169875900        1 TEMP              0 ****  ****    0 ROOT


##########                                Name:    ZINC000740843182
##########                DOCK_Rotatable_Bonds:                  10
##########                         Heavy_Atoms:                  24
##########                    Molecular_Weight:              419.34
##########                DOCK_Rotatable_Bonds:                  10
##########                       Formal_Charge:          0.00999957
##########                     HBond_Acceptors:                   7
##########                        HBond_Donors:                   3
##########                         Heavy_Atoms:                  24
##########                          Grid_Score:          -31.286505
##########                     Grid_vdw_energy:          -30.148230
##########                      Grid_es_energy:           -1.138275
##########           Internal_energy_repulsive:           11.744994

@<TRIPOS>MOLECULE
ZINC000740843182
 47 48 1 0 0
SMALL
USER_CHARGES


@<TRIPOS>ATOM
      1 C1         -7.9032   -1.0524   60.2570 C.3     1  ZINC000740843182   -0.1500
      2 C2         -8.7854    0.0684   59.7032 C.3     1  ZINC000740843182   -0.1000
      3 H3         -9.1466   -0.2093   58.7130 H       1  ZINC000740843182    0.0900
      4 C4         -9.9768    0.2883   60.6376 C.3     1  ZINC000740843182    0.1200
      5 N5        -11.1695   -0.3402   60.0645 N.am    1  ZINC000740843182   -0.7200
      6 C6        -11.6599   -1.4733   60.6049 C.2     1  ZINC000740843182    0.5500
      7 O7        -11.1115   -1.9747   61.5670 O.2     1  ZINC000740843182   -0.5000
      8 C8        -12.8642   -2.1064   60.0277 C.ar    1  ZINC000740843182   -0.1300
      9 C9        -12.7789   -2.8080   58.8242 C.ar    1  ZINC000740843182    0.0200
     10 C10       -13.9067   -3.3970   58.2911 C.ar    1  ZINC000740843182   -0.6800
     11 S11       -13.8006   -4.2831   56.7718 S.o2    1  ZINC000740843182    2.7000
     12 O12       -12.7119   -3.7194   56.0536 O.2     1  ZINC000740843182   -0.9400
     13 O13       -13.8810   -5.6621   57.1051 O.2     1  ZINC000740843182   -0.9500
     14 N14       -15.1660   -3.9316   55.9030 N.am    1  ZINC000740843182   -1.0900
     15 C15       -15.4579   -2.5464   55.5260 C.3     1  ZINC000740843182    0.0800
     16 C16       -16.1823   -2.3131   54.1987 C.3     1  ZINC000740843182   -0.1800
     17 C17       -16.9243   -2.1097   55.5213 C.3     1  ZINC000740843182   -0.1900
     18 C18       -15.1209   -3.2941   58.9466 C.ar    1  ZINC000740843182    0.0100
     19 C19       -15.2136   -2.6006   60.1398 C.ar    1  ZINC000740843182   -0.1200
     20 C20       -14.0920   -2.0102   60.6873 C.ar    1  ZINC000740843182    0.0100
     21 Br21      -14.2201   -1.0622   62.3185 Br      1  ZINC000740843182    0.0100
     22 C22        -7.9691    1.3587   59.6052 C.3     1  ZINC000740843182   -0.1400
     23 C23        -7.0096    1.2661   58.4170 C.3     1  ZINC000740843182    0.1000
     24 H24        -6.3184    0.4377   58.5718 H       1  ZINC000740843182    0.1000
     25 C25        -6.2217    2.5719   58.2948 C.3     1  ZINC000740843182   -0.1900
     26 O26        -7.7558    1.0461   57.2183 O.3     1  ZINC000740843182   -0.5600
     27 H27        -7.0544   -1.2092   59.5913 H       1  ZINC000740843182    0.0600
     28 H28        -7.5420   -0.7748   61.2472 H       1  ZINC000740843182    0.0600
     29 H29        -8.4847   -1.9716   60.3269 H       1  ZINC000740843182    0.0500
     30 H30        -9.7632   -0.1563   61.6096 H       1  ZINC000740843182    0.0700
     31 H31       -10.1518    1.3575   60.7577 H       1  ZINC000740843182    0.0700
     32 H32       -11.6064    0.0591   59.2960 H       1  ZINC000740843182    0.4000
     33 H33       -11.8320   -2.8894   58.3112 H       1  ZINC000740843182    0.1500
     34 H34       -15.7723   -4.6429   55.6438 H       1  ZINC000740843182    0.4200
     35 H35       -14.7143   -1.8097   55.8302 H       1  ZINC000740843182    0.1400
     36 H36       -15.9153   -1.4229   53.6293 H       1  ZINC000740843182    0.1100
     37 H37       -16.4417   -3.1904   53.6061 H       1  ZINC000740843182    0.1000
     38 H38       -17.6717   -2.8530   55.7986 H       1  ZINC000740843182    0.1000
     39 H39       -17.1453   -1.0855   55.8219 H       1  ZINC000740843182    0.1100
     40 H40       -16.0005   -3.7574   58.5244 H       1  ZINC000740843182    0.1600
     41 H41       -16.1644   -2.5240   60.6463 H       1  ZINC000740843182    0.1500
     42 H42        -8.6421    2.2044   59.4637 H       1  ZINC000740843182    0.0700
     43 H43        -7.3982    1.4981   60.5231 H       1  ZINC000740843182    0.0800
     44 H44        -5.6525    2.7397   59.2092 H       1  ZINC000740843182    0.0700
     45 H45        -5.5382    2.5060   57.4483 H       1  ZINC000740843182    0.0600
     46 H46        -6.9129    3.4003   58.1400 H       1  ZINC000740843182    0.0600
     47 H47        -7.2263    0.7124   56.4811 H       1  ZINC000740843182    0.3700
@<TRIPOS>BOND
     1     1     2    1
     2     1    27    1
     3     1    28    1
     4     1    29    1
     5     2     3    1
     6     2     4    1
     7     2    22    1
     8     4     5    1
     9     4    30    1
    10     4    31    1
    11     5     6   am
    12     5    32    1
    13     6     7    2
    14     6     8    1
    15     8    20   ar
    16     8     9   ar
    17     9    10   ar
    18     9    33    1
    19    10    11    1
    20    10    18   ar
    21    11    12    2
    22    11    13    2
    23    11    14   am
    24    14    15    1
    25    14    34    1
    26    15    17    1
    27    15    16    1
    28    15    35    1
    29    16    17    1
    30    16    36    1
    31    16    37    1
    32    17    38    1
    33    17    39    1
    34    18    19   ar
    35    18    40    1
    36    19    20   ar
    37    19    41    1
    38    20    21    1
    39    22    23    1
    40    22    42    1
    41    22    43    1
    42    23    24    1
    43    23    25    1
    44    23    26    1
    45    25    44    1
    46    25    45    1
    47    25    46    1
    48    26    47    1
@<TRIPOS>SUBSTRUCTURE
     1 ZINC000740843182        1 TEMP              0 ****  ****    0 ROOT


##########                                Name:    ZINC000053543817
##########                DOCK_Rotatable_Bonds:                   7
##########                         Heavy_Atoms:                  25
##########                    Molecular_Weight:             350.458
##########                DOCK_Rotatable_Bonds:                   7
##########                       Formal_Charge:           0.0199998
##########                     HBond_Acceptors:                   6
##########                        HBond_Donors:                   2
##########                         Heavy_Atoms:                  25
##########                          Grid_Score:          -31.280041
##########                     Grid_vdw_energy:          -29.705975
##########                      Grid_es_energy:           -1.574065
##########           Internal_energy_repulsive:           43.308422

@<TRIPOS>MOLECULE
ZINC000053543817
 55 56 1 0 0
SMALL
USER_CHARGES


@<TRIPOS>ATOM
      1 C1        -10.0835   -0.2728   53.6474 C.3     1  ZINC000053543817   -0.0700
      2 C2        -10.7787   -0.9323   54.8106 C.2     1  ZINC000053543817   -0.0200
      3 C3        -10.4620   -0.7724   56.1108 C.2     1  ZINC000053543817   -0.1800
      4 C4        -11.3615   -1.5663   56.8448 C.2     1  ZINC000053543817   -0.1900
      5 C5        -12.1790   -2.1671   55.9560 C.2     1  ZINC000053543817    0.0000
      6 C6        -13.2941   -3.1087   56.3406 C.3     1  ZINC000053543817   -0.0300
      7 C7        -13.5908   -2.9245   57.8336 C.3     1  ZINC000053543817   -0.0500
      8 C8        -14.2488   -1.5615   58.0582 C.3     1  ZINC000053543817   -0.1500
      9 C9        -14.5364   -4.0309   58.3057 C.3     1  ZINC000053543817   -0.1400
     10 C10       -12.2841   -2.9972   58.6284 C.3     1  ZINC000053543817   -0.1200
     11 C11       -11.4407   -1.7491   58.3380 C.3     1  ZINC000053543817    0.2200
     12 H12       -11.9098   -0.8756   58.7908 H       1  ZINC000053543817    0.1000
     13 N13       -10.0936   -1.9253   58.8861 N.am    1  ZINC000053543817   -0.7100
     14 C14        -9.8033   -1.4689   60.1206 C.2     1  ZINC000053543817    0.5100
     15 O15       -10.6569   -0.9110   60.7771 O.2     1  ZINC000053543817   -0.5300
     16 C16        -8.4181   -1.6518   60.6851 C.3     1  ZINC000053543817    0.1400
     17 H17        -8.1967   -2.7159   60.7674 H       1  ZINC000053543817    0.1200
     18 C18        -8.3425   -1.0066   62.0703 C.3     1  ZINC000053543817   -0.1600
     19 N19        -7.4411   -1.0170   59.7968 N.am    1  ZINC000053543817   -0.7000
     20 C20        -7.5816    0.2798   59.4575 C.2     1  ZINC000053543817    0.6600
     21 O21        -8.5194    0.9220   59.8872 O.2     1  ZINC000053543817   -0.5700
     22 O22        -6.6829    0.8635   58.6425 O.3     1  ZINC000053543817   -0.3600
     23 C23        -6.9756    2.2146   58.1985 C.3     1  ZINC000053543817    0.1400
     24 C24        -8.3262    2.2339   57.4798 C.3     1  ZINC000053543817   -0.1800
     25 C25        -7.0283    3.1491   59.4087 C.3     1  ZINC000053543817   -0.1400
     26 C26        -5.8805    2.6844   57.2387 C.3     1  ZINC000053543817   -0.1800
     27 O27       -11.8236   -1.7753   54.7266 O.3     1  ZINC000053543817   -0.1700
     28 H28       -10.5580   -0.5839   52.7167 H       1  ZINC000053543817    0.0800
     29 H29       -10.1556    0.8102   53.7475 H       1  ZINC000053543817    0.0800
     30 H30        -9.0342   -0.5677   53.6365 H       1  ZINC000053543817    0.0800
     31 H31        -9.6712   -0.1553   56.5109 H       1  ZINC000053543817    0.1400
     32 H32       -14.1862   -2.8775   55.7584 H       1  ZINC000053543817    0.0900
     33 H33       -12.9864   -4.1373   56.1523 H       1  ZINC000053543817    0.0900
     34 H34       -15.1797   -1.5101   57.4935 H       1  ZINC000053543817    0.0600
     35 H35       -14.4598   -1.4304   59.1195 H       1  ZINC000053543817    0.0600
     36 H36       -13.5756   -0.7733   57.7215 H       1  ZINC000053543817    0.0600
     37 H37       -14.0681   -5.0020   58.1453 H       1  ZINC000053543817    0.0600
     38 H38       -14.7475   -3.9002   59.3670 H       1  ZINC000053543817    0.0600
     39 H39       -15.4673   -3.9787   57.7409 H       1  ZINC000053543817    0.0600
     40 H40       -12.5088   -3.0443   59.6939 H       1  ZINC000053543817    0.0800
     41 H41       -11.7289   -3.8879   58.3341 H       1  ZINC000053543817    0.0700
     42 H42        -9.4106   -2.3705   58.3606 H       1  ZINC000053543817    0.4000
     43 H43        -9.0694   -1.4788   62.7312 H       1  ZINC000053543817    0.0800
     44 H44        -7.3405   -1.1388   62.4786 H       1  ZINC000053543817    0.0800
     45 H45        -8.5638    0.0576   61.9880 H       1  ZINC000053543817    0.0700
     46 H46        -6.6932   -1.5300   59.4529 H       1  ZINC000053543817    0.4200
     47 H47        -9.1063    1.8992   58.1635 H       1  ZINC000053543817    0.0600
     48 H48        -8.5459    3.2482   57.1464 H       1  ZINC000053543817    0.0700
     49 H49        -8.2885    1.5681   56.6175 H       1  ZINC000053543817    0.0900
     50 H50        -6.0662    3.1353   59.9206 H       1  ZINC000053543817    0.0700
     51 H51        -7.2481    4.1633   59.0752 H       1  ZINC000053543817    0.0800
     52 H52        -7.8085    2.8144   60.0924 H       1  ZINC000053543817    0.0700
     53 H53        -5.8429    2.0186   56.3765 H       1  ZINC000053543817    0.0900
     54 H54        -6.1001    3.6986   56.9053 H       1  ZINC000053543817    0.0700
     55 H55        -4.9183    2.6705   57.7507 H       1  ZINC000053543817    0.0600
@<TRIPOS>BOND
     1     1     2    1
     2     1    28    1
     3     1    29    1
     4     1    30    1
     5     2    27    1
     6     2     3    2
     7     3     4    1
     8     3    31    1
     9     4    11    1
    10     4     5    2
    11     5     6    1
    12     5    27    1
    13     6     7    1
    14     6    32    1
    15     6    33    1
    16     7     8    1
    17     7     9    1
    18     7    10    1
    19     8    34    1
    20     8    35    1
    21     8    36    1
    22     9    37    1
    23     9    38    1
    24     9    39    1
    25    10    11    1
    26    10    40    1
    27    10    41    1
    28    11    12    1
    29    11    13    1
    30    13    14   am
    31    13    42    1
    32    14    15    2
    33    14    16    1
    34    16    17    1
    35    16    18    1
    36    16    19    1
    37    18    43    1
    38    18    44    1
    39    18    45    1
    40    19    20   am
    41    19    46    1
    42    20    21    2
    43    20    22    1
    44    22    23    1
    45    23    24    1
    46    23    25    1
    47    23    26    1
    48    24    47    1
    49    24    48    1
    50    24    49    1
    51    25    50    1
    52    25    51    1
    53    25    52    1
    54    26    53    1
    55    26    54    1
    56    26    55    1
@<TRIPOS>SUBSTRUCTURE
     1 ZINC000053543817        1 TEMP              0 ****  ****    0 ROOT


##########                                Name:    ZINC001119787528
##########                DOCK_Rotatable_Bonds:                   6
##########                         Heavy_Atoms:                  27
##########                    Molecular_Weight:             362.434
##########                DOCK_Rotatable_Bonds:                   6
##########                       Formal_Charge:          -0.0199998
##########                     HBond_Acceptors:                   7
##########                        HBond_Donors:                   1
##########                         Heavy_Atoms:                  27
##########                          Grid_Score:          -31.277359
##########                     Grid_vdw_energy:          -30.026926
##########                      Grid_es_energy:           -1.250432
##########           Internal_energy_repulsive:           13.518371

@<TRIPOS>MOLECULE
ZINC001119787528
 49 52 1 0 0
SMALL
USER_CHARGES


@<TRIPOS>ATOM
      1 C1         -4.0064    2.6359   55.6246 C.3     1  ZINC001119787528   -0.1700
      2 C2         -2.9216    3.3815   56.4044 C.3     1  ZINC001119787528    0.1000
      3 N3         -1.6430    3.2603   55.6995 N.pl3   1  ZINC001119787528   -0.4500
      4 C4         -0.5491    2.5892   56.1278 C.2     1  ZINC001119787528    0.1800
      5 N5          0.3955    2.7086   55.2313 N.2     1  ZINC001119787528   -0.4800
      6 C6         -0.0567    3.4484   54.2165 C.2     1  ZINC001119787528   -0.0200
      7 C7         -1.3330    3.7971   54.4866 C.2     1  ZINC001119787528   -0.0100
      8 C8         -2.2073    4.6282   53.5847 C.3     1  ZINC001119787528   -0.0600
      9 C9         -1.3172    5.3676   52.5774 C.3     1  ZINC001119787528    0.1400
     10 N10        -0.3192    4.4313   52.0391 N.am    1  ZINC001119787528   -0.6200
     11 C11        -0.3160    4.1021   50.7321 C.2     1  ZINC001119787528    0.7200
     12 O12         0.5156    3.3262   50.3028 O.2     1  ZINC001119787528   -0.5600
     13 N13        -1.2351    4.6327   49.9012 N.am    1  ZINC001119787528   -0.6600
     14 C14        -1.2318    4.2931   48.5533 C.ar    1  ZINC001119787528    0.4200
     15 C15        -1.0171    5.2670   47.5778 C.ar    1  ZINC001119787528   -0.2500
     16 C16        -1.0226    4.8792   46.2513 C.ar    1  ZINC001119787528    0.1600
     17 N17        -1.2300    3.6054   45.9513 N.ar    1  ZINC001119787528   -0.5300
     18 C18        -1.4297    2.7093   46.8970 C.ar    1  ZINC001119787528    0.3500
     19 C19        -1.6608    1.2720   46.5072 C.3     1  ZINC001119787528   -0.0100
     20 C20        -0.6089    0.4028   47.1469 C.ar    1  ZINC001119787528   -0.0800
     21 C21        -0.9145   -0.8940   47.5152 C.ar    1  ZINC001119787528   -0.1000
     22 C22         0.0503   -1.6914   48.1021 C.ar    1  ZINC001119787528   -0.1200
     23 C23         1.3207   -1.1920   48.3202 C.ar    1  ZINC001119787528   -0.1200
     24 C24         1.6265    0.1046   47.9509 C.ar    1  ZINC001119787528   -0.1200
     25 C25         0.6629    0.9005   47.3602 C.ar    1  ZINC001119787528   -0.1000
     26 N26        -1.4276    3.0343   48.1736 N.ar    1  ZINC001119787528   -0.5500
     27 C27         0.6764    3.8577   52.9610 C.3     1  ZINC001119787528    0.2000
     28 H28        -4.9578    2.7260   56.1490 H       1  ZINC001119787528    0.0800
     29 H29        -4.0987    3.0671   54.6278 H       1  ZINC001119787528    0.0600
     30 H30        -3.7357    1.5833   55.5415 H       1  ZINC001119787528    0.0600
     31 H31        -3.1923    4.4341   56.4875 H       1  ZINC001119787528    0.0900
     32 H32        -2.8293    2.9501   57.4012 H       1  ZINC001119787528    0.1000
     33 H33        -0.4689    2.0448   57.0571 H       1  ZINC001119787528    0.2100
     34 H34        -2.9024    3.9801   53.0512 H       1  ZINC001119787528    0.0800
     35 H35        -2.7635    5.3518   54.1807 H       1  ZINC001119787528    0.0900
     36 H36        -1.9309    5.7537   51.7635 H       1  ZINC001119787528    0.1100
     37 H37        -0.8102    6.1934   53.0764 H       1  ZINC001119787528    0.0800
     38 H38        -1.8986    5.2516   50.2438 H       1  ZINC001119787528    0.4200
     39 H39        -0.8511    6.2982   47.8524 H       1  ZINC001119787528    0.1800
     40 H40        -0.8603    5.6057   45.4687 H       1  ZINC001119787528    0.1700
     41 H41        -2.6477    0.9576   46.8469 H       1  ZINC001119787528    0.1000
     42 H42        -1.6019    1.1755   45.4232 H       1  ZINC001119787528    0.1000
     43 H43        -1.9071   -1.2842   47.3450 H       1  ZINC001119787528    0.1300
     44 H44        -0.1885   -2.7044   48.3906 H       1  ZINC001119787528    0.1200
     45 H45         2.0743   -1.8146   48.7792 H       1  ZINC001119787528    0.1200
     46 H46         2.6189    0.4949   48.1216 H       1  ZINC001119787528    0.1200
     47 H47         0.9018    1.9134   47.0717 H       1  ZINC001119787528    0.1200
     48 H48         1.4302    4.6062   53.2053 H       1  ZINC001119787528    0.0900
     49 H49         1.1496    2.9894   52.5026 H       1  ZINC001119787528    0.0900
@<TRIPOS>BOND
     1     1     2    1
     2     1    28    1
     3     1    29    1
     4     1    30    1
     5     2     3    1
     6     2    31    1
     7     2    32    1
     8     3     7    1
     9     3     4    1
    10     4     5    2
    11     4    33    1
    12     5     6    1
    13     6    27    1
    14     6     7    2
    15     7     8    1
    16     8     9    1
    17     8    34    1
    18     8    35    1
    19     9    10    1
    20     9    36    1
    21     9    37    1
    22    10    11   am
    23    10    27    1
    24    11    12    2
    25    11    13   am
    26    13    14    1
    27    13    38    1
    28    14    26   ar
    29    14    15   ar
    30    15    16   ar
    31    15    39    1
    32    16    17   ar
    33    16    40    1
    34    17    18   ar
    35    18    19    1
    36    18    26   ar
    37    19    20    1
    38    19    41    1
    39    19    42    1
    40    20    25   ar
    41    20    21   ar
    42    21    22   ar
    43    21    43    1
    44    22    23   ar
    45    22    44    1
    46    23    24   ar
    47    23    45    1
    48    24    25   ar
    49    24    46    1
    50    25    47    1
    51    27    48    1
    52    27    49    1
@<TRIPOS>SUBSTRUCTURE
     1 ZINC001119787528        1 TEMP              0 ****  ****    0 ROOT


##########                                Name:    ZINC000673213454
##########                DOCK_Rotatable_Bonds:                   7
##########                         Heavy_Atoms:                  26
##########                    Molecular_Weight:             360.453
##########                DOCK_Rotatable_Bonds:                   7
##########                       Formal_Charge:          -0.0100001
##########                     HBond_Acceptors:                   6
##########                        HBond_Donors:                   1
##########                         Heavy_Atoms:                  26
##########                          Grid_Score:          -31.250210
##########                     Grid_vdw_energy:          -29.405676
##########                      Grid_es_energy:           -1.844533
##########           Internal_energy_repulsive:           13.898747

@<TRIPOS>MOLECULE
ZINC000673213454
 54 56 1 0 0
SMALL
USER_CHARGES


@<TRIPOS>ATOM
      1 C1         -2.3375    3.2085   55.8348 C.3     1  ZINC000673213454   -0.1700
      2 C2         -3.5578    3.4446   54.9425 C.3     1  ZINC000673213454    0.1400
      3 H3         -3.7812    4.5109   54.9071 H       1  ZINC000673213454    0.0900
      4 C4         -4.7605    2.6903   55.5130 C.3     1  ZINC000673213454   -0.1200
      5 C5         -5.7407    3.6879   56.1332 C.3     1  ZINC000673213454   -0.1300
      6 H6         -5.8372    4.5701   55.5006 H       1  ZINC000673213454    0.0800
      7 C7         -5.2786    4.0887   57.5554 C.3     1  ZINC000673213454   -0.1500
      8 C8         -6.6176    4.1194   58.3354 C.3     1  ZINC000673213454    0.0500
      9 O9         -7.3613    3.0178   57.7712 O.3     1  ZINC000673213454   -0.3800
     10 C10        -7.1160    3.0278   56.3518 C.3     1  ZINC000673213454    0.0500
     11 N11        -3.2744    2.9599   53.5894 N.am    1  ZINC000673213454   -0.6900
     12 C12        -3.8214    3.5779   52.5238 C.2     1  ZINC000673213454    0.5100
     13 O13        -4.5474    4.5368   52.6852 O.2     1  ZINC000673213454   -0.5100
     14 C14        -3.5337    3.0824   51.1435 C.2     1  ZINC000673213454    0.5000
     15 O15        -4.1023    2.0967   50.7219 O.2     1  ZINC000673213454   -0.5200
     16 N16        -2.6429    3.7303   50.3669 N.am    1  ZINC000673213454   -0.5800
     17 C17        -1.9677    4.9255   50.9068 C.3     1  ZINC000673213454    0.1100
     18 C18        -0.4785    4.9339   50.5318 C.3     1  ZINC000673213454   -0.1700
     19 C19         0.0817    3.5304   50.6459 C.3     1  ZINC000673213454    0.0800
     20 O20        -0.0422    2.8850   49.3854 O.3     1  ZINC000673213454   -0.3800
     21 C21        -1.2102    2.2175   49.0769 C.3     1  ZINC000673213454    0.1500
     22 H22        -1.4090    1.4626   49.8376 H       1  ZINC000673213454    0.0600
     23 C23        -1.0677    1.5510   47.7328 C.ar    1  ZINC000673213454   -0.0800
     24 C24        -1.0323    0.1719   47.6454 C.ar    1  ZINC000673213454   -0.0900
     25 C25        -0.9017   -0.4394   46.4125 C.ar    1  ZINC000673213454   -0.1300
     26 C26        -0.8068    0.3283   45.2670 C.ar    1  ZINC000673213454   -0.1200
     27 C27        -0.8430    1.7074   45.3542 C.ar    1  ZINC000673213454   -0.1300
     28 C28        -0.9780    2.3187   46.5867 C.ar    1  ZINC000673213454   -0.0900
     29 C29        -2.3798    3.2222   49.0332 C.3     1  ZINC000673213454    0.0700
     30 H30        -2.1142    2.1422   55.8701 H       1  ZINC000673213454    0.0600
     31 H31        -1.4808    3.7459   55.4283 H       1  ZINC000673213454    0.0600
     32 H32        -2.5484    3.5691   56.8416 H       1  ZINC000673213454    0.0700
     33 H33        -5.2578    2.1415   54.7132 H       1  ZINC000673213454    0.0800
     34 H34        -4.4215    1.9909   56.2773 H       1  ZINC000673213454    0.0900
     35 H35        -4.6036    3.3403   57.9705 H       1  ZINC000673213454    0.0800
     36 H36        -4.8095    5.0726   57.5490 H       1  ZINC000673213454    0.0800
     37 H37        -6.4454    3.9610   59.3999 H       1  ZINC000673213454    0.0900
     38 H38        -7.1391    5.0614   58.1659 H       1  ZINC000673213454    0.0600
     39 H39        -7.8911    3.6032   55.8457 H       1  ZINC000673213454    0.0600
     40 H40        -7.1015    2.0067   55.9709 H       1  ZINC000673213454    0.0900
     41 H41        -2.6932    2.1942   53.4603 H       1  ZINC000673213454    0.4100
     42 H42        -2.4438    5.8187   50.5023 H       1  ZINC000673213454    0.0800
     43 H43        -2.0635    4.9307   51.9926 H       1  ZINC000673213454    0.0900
     44 H44        -0.3642    5.2882   49.5074 H       1  ZINC000673213454    0.0800
     45 H45         0.0622    5.5965   51.2075 H       1  ZINC000673213454    0.0900
     46 H46         1.1329    3.5786   50.9301 H       1  ZINC000673213454    0.1000
     47 H47        -0.4775    2.9737   51.3980 H       1  ZINC000673213454    0.0500
     48 H48        -1.1065   -0.4279   48.5405 H       1  ZINC000673213454    0.1300
     49 H49        -0.8734   -1.5170   46.3444 H       1  ZINC000673213454    0.1200
     50 H50        -0.7040   -0.1492   44.3038 H       1  ZINC000673213454    0.1200
     51 H51        -0.7686    2.3074   44.4592 H       1  ZINC000673213454    0.1200
     52 H52        -1.0064    3.3962   46.6549 H       1  ZINC000673213454    0.1300
     53 H53        -3.2723    2.7243   48.6542 H       1  ZINC000673213454    0.1200
     54 H54        -2.1209    4.0526   48.3763 H       1  ZINC000673213454    0.0800
@<TRIPOS>BOND
     1     1     2    1
     2     1    30    1
     3     1    31    1
     4     1    32    1
     5     2     3    1
     6     2     4    1
     7     2    11    1
     8     4     5    1
     9     4    33    1
    10     4    34    1
    11     5     6    1
    12     5    10    1
    13     5     7    1
    14     7     8    1
    15     7    35    1
    16     7    36    1
    17     8     9    1
    18     8    37    1
    19     8    38    1
    20     9    10    1
    21    10    39    1
    22    10    40    1
    23    11    12   am
    24    11    41    1
    25    12    13    2
    26    12    14    1
    27    14    15    2
    28    14    16   am
    29    16    29    1
    30    16    17    1
    31    17    18    1
    32    17    42    1
    33    17    43    1
    34    18    19    1
    35    18    44    1
    36    18    45    1
    37    19    20    1
    38    19    46    1
    39    19    47    1
    40    20    21    1
    41    21    22    1
    42    21    23    1
    43    21    29    1
    44    23    28   ar
    45    23    24   ar
    46    24    25   ar
    47    24    48    1
    48    25    26   ar
    49    25    49    1
    50    26    27   ar
    51    26    50    1
    52    27    28   ar
    53    27    51    1
    54    28    52    1
    55    29    53    1
    56    29    54    1
@<TRIPOS>SUBSTRUCTURE
     1 ZINC000673213454        1 TEMP              0 ****  ****    0 ROOT


##########                                Name:    ZINC000054627026
##########                DOCK_Rotatable_Bonds:                   5
##########                         Heavy_Atoms:                  28
##########                    Molecular_Weight:              370.37
##########                DOCK_Rotatable_Bonds:                   5
##########                       Formal_Charge:         6.85453e-07
##########                     HBond_Acceptors:                   8
##########                        HBond_Donors:                   2
##########                         Heavy_Atoms:                  28
##########                          Grid_Score:          -31.248245
##########                     Grid_vdw_energy:          -31.226126
##########                      Grid_es_energy:           -0.022119
##########           Internal_energy_repulsive:            5.497344

@<TRIPOS>MOLECULE
ZINC000054627026
 42 46 1 0 0
SMALL
USER_CHARGES


@<TRIPOS>ATOM
      1 O1         -1.4481    3.6225   52.0423 O.2     1  ZINC000054627026   -0.5200
      2 C2         -2.6329    3.3488   52.0356 C.2     1  ZINC000054627026    0.6100
      3 N3         -3.2630    3.1110   50.8681 N.am    1  ZINC000054627026   -0.6500
      4 C4         -2.5545    3.1848   49.6624 C.ar    1  ZINC000054627026    0.1400
      5 C5         -1.9770    4.3908   49.2710 C.ar    1  ZINC000054627026   -0.0900
      6 C6         -1.2766    4.4769   48.0867 C.ar    1  ZINC000054627026   -0.0900
      7 C7         -1.1441    3.3581   47.2772 C.ar    1  ZINC000054627026    0.0500
      8 N8         -0.5218    3.1235   46.0634 N.pl3   1  ZINC000054627026   -0.5900
      9 C9         -0.7308    1.8054   45.7497 C.2     1  ZINC000054627026    0.3700
     10 C10        -0.2370    1.1352   44.5377 C.2     1  ZINC000054627026    0.0200
     11 C11         0.9661    1.3543   43.9355 C.2     1  ZINC000054627026   -0.1200
     12 C12         1.0199    0.5029   42.8171 C.2     1  ZINC000054627026   -0.2200
     13 C13        -0.1388   -0.1879   42.7889 C.2     1  ZINC000054627026   -0.0100
     14 O14        -0.8927    0.1925   43.8315 O.3     1  ZINC000054627026   -0.1700
     15 N15        -1.4386    1.2317   46.6963 N.2     1  ZINC000054627026   -0.4600
     16 C16        -1.7237    2.1363   47.6640 C.ar    1  ZINC000054627026    0.0700
     17 C17        -2.4274    2.0592   48.8700 C.ar    1  ZINC000054627026   -0.0900
     18 C18        -3.3791    3.2712   53.3055 C.2     1  ZINC000054627026   -0.1000
     19 C19        -4.7060    2.9723   53.4350 C.2     1  ZINC000054627026    0.1000
     20 N20        -4.9865    3.0062   54.7560 N.pl3   1  ZINC000054627026   -0.3100
     21 C21        -6.2313    2.7612   55.3533 C.ar    1  ZINC000054627026    0.1300
     22 C22        -7.3426    2.5005   54.5630 C.ar    1  ZINC000054627026   -0.1200
     23 C23        -8.5673    2.2590   55.1542 C.ar    1  ZINC000054627026   -0.1000
     24 C24        -8.6874    2.2771   56.5316 C.ar    1  ZINC000054627026   -0.1100
     25 C25        -7.5823    2.5370   57.3213 C.ar    1  ZINC000054627026   -0.1000
     26 C26        -6.3537    2.7731   56.7361 C.ar    1  ZINC000054627026   -0.1000
     27 N27        -3.7928    3.3332   55.4149 N.2     1  ZINC000054627026   -0.0500
     28 N28        -2.8673    3.4766   54.5314 N.2     1  ZINC000054627026   -0.2000
     29 H29        -4.2072    2.8886   50.8630 H       1  ZINC000054627026    0.4200
     30 H30        -2.0789    5.2634   49.8991 H       1  ZINC000054627026    0.1500
     31 H31        -0.8316    5.4150   47.7890 H       1  ZINC000054627026    0.1300
     32 H32        -0.0303    3.7706   45.5337 H       1  ZINC000054627026    0.4300
     33 H33         1.7300    2.0478   44.2549 H       1  ZINC000054627026    0.1600
     34 H34         1.8348    0.4184   42.1134 H       1  ZINC000054627026    0.1600
     35 H35        -0.4126   -0.9274   42.0509 H       1  ZINC000054627026    0.2100
     36 H36        -2.8722    1.1250   49.1797 H       1  ZINC000054627026    0.1400
     37 H37        -5.3976    2.7518   52.6354 H       1  ZINC000054627026    0.2100
     38 H38        -7.2496    2.4868   53.4871 H       1  ZINC000054627026    0.1400
     39 H39        -9.4322    2.0561   54.5400 H       1  ZINC000054627026    0.1400
     40 H40        -9.6460    2.0884   56.9916 H       1  ZINC000054627026    0.1400
     41 H41        -7.6792    2.5508   58.3968 H       1  ZINC000054627026    0.1400
     42 H42        -5.4910    2.9760   57.3534 H       1  ZINC000054627026    0.1400
@<TRIPOS>BOND
     1     1     2    2
     2     2     3   am
     3     2    18    1
     4     3     4    1
     5     3    29    1
     6     4    17   ar
     7     4     5   ar
     8     5     6   ar
     9     5    30    1
    10     6     7   ar
    11     6    31    1
    12     7    16   ar
    13     7     8    1
    14     8     9    1
    15     8    32    1
    16     9    10    1
    17     9    15    2
    18    10    14    1
    19    10    11    2
    20    11    12    1
    21    11    33    1
    22    12    13    2
    23    12    34    1
    24    13    14    1
    25    13    35    1
    26    15    16    1
    27    16    17   ar
    28    17    36    1
    29    18    28    1
    30    18    19    2
    31    19    20    1
    32    19    37    1
    33    20    21    1
    34    20    27    1
    35    21    26   ar
    36    21    22   ar
    37    22    23   ar
    38    22    38    1
    39    23    24   ar
    40    23    39    1
    41    24    25   ar
    42    24    40    1
    43    25    26   ar
    44    25    41    1
    45    26    42    1
    46    27    28    2
@<TRIPOS>SUBSTRUCTURE
     1 ZINC000054627026        1 TEMP              0 ****  ****    0 ROOT


##########                                Name:    ZINC000652498551
##########                DOCK_Rotatable_Bonds:                   6
##########                         Heavy_Atoms:                  23
##########                    Molecular_Weight:             388.277
##########                DOCK_Rotatable_Bonds:                   6
##########                       Formal_Charge:          -0.0400001
##########                     HBond_Acceptors:                   5
##########                        HBond_Donors:                   1
##########                         Heavy_Atoms:                  23
##########                          Grid_Score:          -31.188900
##########                     Grid_vdw_energy:          -26.002344
##########                      Grid_es_energy:           -5.186557
##########           Internal_energy_repulsive:           24.423193

@<TRIPOS>MOLECULE
ZINC000652498551
 46 47 1 0 0
SMALL
USER_CHARGES


@<TRIPOS>ATOM
      1 C1         -7.8231    2.2394   66.3936 C.3     1  ZINC000652498551   -0.1300
      2 C2         -7.6564    0.8355   65.8086 C.3     1  ZINC000652498551   -0.1300
      3 C3         -6.4778    0.1362   66.4887 C.3     1  ZINC000652498551   -0.1300
      4 C4         -8.9153    0.0410   66.0432 C.2     1  ZINC000652498551    0.5000
      5 O5         -9.9911    0.4801   65.6741 O.co2   1  ZINC000652498551   -0.7000
      6 O6         -8.8580   -1.0411   66.6022 O.co2   1  ZINC000652498551   -0.6700
      7 C7         -7.3905    0.9376   64.3054 C.3     1  ZINC000652498551   -0.0600
      8 H8         -6.3209    1.0558   64.1323 H       1  ZINC000652498551    0.0700
      9 C9         -8.1375    2.1466   63.7349 C.3     1  ZINC000652498551   -0.1500
     10 C10        -7.9285    2.1944   62.2185 C.3     1  ZINC000652498551   -0.1400
     11 C11        -8.4021    0.8764   61.6022 C.3     1  ZINC000652498551   -0.0100
     12 N12        -7.6323   -0.2375   62.1688 N.4     1  ZINC000652498551   -0.3800
     13 H13        -6.6483   -0.0802   62.0099 H       1  ZINC000652498551    0.4200
     14 C14        -8.0374   -1.4913   61.5193 C.3     1  ZINC000652498551    0.0000
     15 C15        -9.5480   -1.6801   61.6726 C.3     1  ZINC000652498551    0.0200
     16 O16       -10.1862   -1.4554   60.4139 O.3     1  ZINC000652498551   -0.3100
     17 C17       -11.4613   -1.9058   60.2797 C.ar    1  ZINC000652498551    0.1600
     18 C18       -12.3949   -1.6534   61.2734 C.ar    1  ZINC000652498551   -0.2300
     19 C19       -13.6930   -2.1130   61.1347 C.ar    1  ZINC000652498551    0.1500
     20 F20       -14.6033   -1.8677   62.1022 F       1  ZINC000652498551   -0.1200
     21 C21       -14.0587   -2.8240   60.0043 C.ar    1  ZINC000652498551   -0.1600
     22 C22       -13.1277   -3.0767   59.0127 C.ar    1  ZINC000652498551   -0.0300
     23 Br23      -13.6306   -4.0479   57.4701 Br      1  ZINC000652498551   -0.0100
     24 C24       -11.8319   -2.6140   59.1454 C.ar    1  ZINC000652498551   -0.1300
     25 C25        -7.8830   -0.3343   63.6119 C.3     1  ZINC000652498551   -0.0200
     26 H26        -6.9125    2.8141   66.2240 H       1  ZINC000652498551    0.0400
     27 H27        -8.6627    2.7376   65.9092 H       1  ZINC000652498551    0.0500
     28 H28        -8.0125    2.1667   67.4646 H       1  ZINC000652498551    0.0600
     29 H29        -6.6672    0.0634   67.5597 H       1  ZINC000652498551    0.0700
     30 H30        -6.3591   -0.8641   66.0721 H       1  ZINC000652498551    0.0400
     31 H31        -5.5672    0.7109   66.3191 H       1  ZINC000652498551    0.0500
     32 H32        -9.2013    2.0541   63.9535 H       1  ZINC000652498551    0.1300
     33 H33        -7.7497    3.0603   64.1853 H       1  ZINC000652498551    0.0800
     34 H34        -8.5025    3.0200   61.7979 H       1  ZINC000652498551    0.1000
     35 H35        -6.8701    2.3383   62.0014 H       1  ZINC000652498551    0.0700
     36 H36        -9.4606    0.7336   61.8197 H       1  ZINC000652498551    0.1300
     37 H37        -8.2549    0.9071   60.5226 H       1  ZINC000652498551    0.1100
     38 H38        -7.7819   -1.4511   60.4606 H       1  ZINC000652498551    0.1400
     39 H39        -7.5175   -2.3274   61.9871 H       1  ZINC000652498551    0.1500
     40 H40        -9.7549   -2.6961   62.0087 H       1  ZINC000652498551    0.1100
     41 H41        -9.9304   -0.9699   62.4057 H       1  ZINC000652498551    0.0900
     42 H42       -12.1094   -1.0988   62.1550 H       1  ZINC000652498551    0.1500
     43 H43       -15.0719   -3.1820   59.8967 H       1  ZINC000652498551    0.1500
     44 H44       -11.1059   -2.8115   58.3707 H       1  ZINC000652498551    0.1500
     45 H45        -7.3530   -1.1972   64.0152 H       1  ZINC000652498551    0.1100
     46 H46        -8.9524   -0.4513   63.7873 H       1  ZINC000652498551    0.1700
@<TRIPOS>BOND
     1     1     2    1
     2     1    26    1
     3     1    27    1
     4     1    28    1
     5     2     3    1
     6     2     4    1
     7     2     7    1
     8     3    29    1
     9     3    30    1
    10     3    31    1
    11     4     5   ar
    12     4     6   ar
    13     7     8    1
    14     7    25    1
    15     7     9    1
    16     9    10    1
    17     9    32    1
    18     9    33    1
    19    10    11    1
    20    10    34    1
    21    10    35    1
    22    11    12    1
    23    11    36    1
    24    11    37    1
    25    12    13    1
    26    12    14    1
    27    12    25    1
    28    14    15    1
    29    14    38    1
    30    14    39    1
    31    15    16    1
    32    15    40    1
    33    15    41    1
    34    16    17    1
    35    17    24   ar
    36    17    18   ar
    37    18    19   ar
    38    18    42    1
    39    19    20    1
    40    19    21   ar
    41    21    22   ar
    42    21    43    1
    43    22    23    1
    44    22    24   ar
    45    24    44    1
    46    25    45    1
    47    25    46    1
@<TRIPOS>SUBSTRUCTURE
     1 ZINC000652498551        1 TEMP              0 ****  ****    0 ROOT


##########                                Name:    ZINC000420486261
##########                DOCK_Rotatable_Bonds:                   7
##########                         Heavy_Atoms:                  26
##########                    Molecular_Weight:             353.378
##########                DOCK_Rotatable_Bonds:                   7
##########                       Formal_Charge:        -2.98023e-08
##########                     HBond_Acceptors:                   7
##########                        HBond_Donors:                   0
##########                         Heavy_Atoms:                  26
##########                          Grid_Score:          -31.184799
##########                     Grid_vdw_energy:          -30.722023
##########                      Grid_es_energy:           -0.462777
##########           Internal_energy_repulsive:           10.087193

@<TRIPOS>MOLECULE
ZINC000420486261
 45 47 1 0 0
SMALL
USER_CHARGES


@<TRIPOS>ATOM
      1 C1          2.2813    2.0437   57.4355 C.3     1  ZINC000420486261    0.0400
      2 O2          0.9012    2.1993   57.0120 O.3     1  ZINC000420486261   -0.3500
      3 C3          0.6906    2.5247   55.7222 C.2     1  ZINC000420486261    0.5100
      4 O4          1.6336    2.6753   54.9722 O.2     1  ZINC000420486261   -0.4900
      5 C5         -0.6908    2.6988   55.2189 C.ar    1  ZINC000420486261   -0.0700
      6 C6         -1.7923    2.3711   56.0164 C.ar    1  ZINC000420486261   -0.0900
      7 C7         -3.0686    2.5482   55.5112 C.ar    1  ZINC000420486261    0.1100
      8 N8         -3.2586    3.0175   54.2971 N.ar    1  ZINC000420486261   -0.4200
      9 C9         -2.2457    3.3424   53.5033 C.ar    1  ZINC000420486261    0.1900
     10 C10        -2.5177    3.8667   52.1462 C.2     1  ZINC000420486261    0.2200
     11 N11        -1.7394    3.7487   51.0882 N.2     1  ZINC000420486261   -0.4300
     12 C12        -2.3931    4.3753   50.0874 C.2     1  ZINC000420486261    0.2200
     13 C13        -1.9261    4.5179   48.6867 C.ar    1  ZINC000420486261   -0.0600
     14 C14        -1.4902    5.7545   48.2171 C.ar    1  ZINC000420486261   -0.0300
     15 C15        -1.0566    5.8820   46.9130 C.ar    1  ZINC000420486261   -0.1600
     16 C16        -1.0532    4.7853   46.0692 C.ar    1  ZINC000420486261   -0.0600
     17 C17        -1.4835    3.5538   46.5246 C.ar    1  ZINC000420486261   -0.2200
     18 C18        -1.9162    3.4100   47.8335 C.ar    1  ZINC000420486261    0.1700
     19 O19        -2.3393    2.2002   48.2824 O.3     1  ZINC000420486261   -0.2900
     20 C20        -1.3611    1.3568   48.8938 C.3     1  ZINC000420486261    0.0600
     21 C21        -0.4470    0.7714   47.8156 C.3     1  ZINC000420486261   -0.0900
     22 C22         0.6570   -0.0560   48.4770 C.3     1  ZINC000420486261   -0.1500
     23 C23        -1.2661   -0.1237   46.8834 C.3     1  ZINC000420486261   -0.1500
     24 N24        -3.5154    4.8336   50.5810 N.2     1  ZINC000420486261   -0.3400
     25 O25        -3.6060    4.5477   51.7561 O.3     1  ZINC000420486261    0.1000
     26 C26        -0.9291    3.2003   53.9366 C.ar    1  ZINC000420486261   -0.0700
     27 H27         2.3095    1.7822   58.4934 H       1  ZINC000420486261    0.1100
     28 H28         2.7532    1.2523   56.8530 H       1  ZINC000420486261    0.0700
     29 H29         2.8174    2.9796   57.2782 H       1  ZINC000420486261    0.0700
     30 H30        -1.6486    1.9843   57.0145 H       1  ZINC000420486261    0.1600
     31 H31        -3.9221    2.2966   56.1232 H       1  ZINC000420486261    0.1800
     32 H32        -1.4917    6.6129   48.8726 H       1  ZINC000420486261    0.1400
     33 H33        -0.7191    6.8415   46.5497 H       1  ZINC000420486261    0.1300
     34 H34        -0.7129    4.8925   45.0498 H       1  ZINC000420486261    0.1300
     35 H35        -1.4786    2.7014   45.8614 H       1  ZINC000420486261    0.1400
     36 H36        -0.7665    1.9403   49.5966 H       1  ZINC000420486261    0.0600
     37 H37        -1.8609    0.5470   49.4254 H       1  ZINC000420486261    0.0600
     38 H38         0.0012    1.5814   47.2402 H       1  ZINC000420486261    0.0800
     39 H39         0.2087   -0.8660   49.0524 H       1  ZINC000420486261    0.0600
     40 H40         1.3082   -0.4731   47.7089 H       1  ZINC000420486261    0.0700
     41 H41         1.2406    0.5816   49.1411 H       1  ZINC000420486261    0.0600
     42 H42        -1.7143   -0.9337   47.4587 H       1  ZINC000420486261    0.0500
     43 H43        -2.0526    0.4657   46.4122 H       1  ZINC000420486261    0.0600
     44 H44        -0.6149   -0.5408   46.1152 H       1  ZINC000420486261    0.0600
     45 H45        -0.1063    3.4656   53.2892 H       1  ZINC000420486261    0.1600
@<TRIPOS>BOND
     1     1     2    1
     2     1    27    1
     3     1    28    1
     4     1    29    1
     5     2     3    1
     6     3     4    2
     7     3     5    1
     8     5    26   ar
     9     5     6   ar
    10     6     7   ar
    11     6    30    1
    12     7     8   ar
    13     7    31    1
    14     8     9   ar
    15     9    10    1
    16     9    26   ar
    17    10    25    1
    18    10    11    2
    19    11    12    1
    20    12    13    1
    21    12    24    2
    22    13    18   ar
    23    13    14   ar
    24    14    15   ar
    25    14    32    1
    26    15    16   ar
    27    15    33    1
    28    16    17   ar
    29    16    34    1
    30    17    18   ar
    31    17    35    1
    32    18    19    1
    33    19    20    1
    34    20    21    1
    35    20    36    1
    36    20    37    1
    37    21    22    1
    38    21    23    1
    39    21    38    1
    40    22    39    1
    41    22    40    1
    42    22    41    1
    43    23    42    1
    44    23    43    1
    45    23    44    1
    46    24    25    1
    47    26    45    1
@<TRIPOS>SUBSTRUCTURE
     1 ZINC000420486261        1 TEMP              0 ****  ****    0 ROOT


##########                                Name:    ZINC000279593480
##########                DOCK_Rotatable_Bonds:                   9
##########                         Heavy_Atoms:                  23
##########                    Molecular_Weight:              340.85
##########                DOCK_Rotatable_Bonds:                   9
##########                       Formal_Charge:          -0.0500002
##########                     HBond_Acceptors:                   6
##########                        HBond_Donors:                   3
##########                         Heavy_Atoms:                  23
##########                          Grid_Score:          -31.160999
##########                     Grid_vdw_energy:          -29.803225
##########                      Grid_es_energy:           -1.357775
##########           Internal_energy_repulsive:           13.696013

@<TRIPOS>MOLECULE
ZINC000279593480
 48 49 1 0 0
SMALL
USER_CHARGES


@<TRIPOS>ATOM
      1 C1          3.2679    4.4089   53.1749 C.3     1  ZINC000279593480   -0.1400
      2 C2          2.4642    3.1864   52.7271 C.3     1  ZINC000279593480   -0.1400
      3 C3          0.9812    3.5534   52.6444 C.3     1  ZINC000279593480    0.1700
      4 H4          0.8797    4.5772   52.2845 H       1  ZINC000279593480    0.0900
      5 C5          0.3485    3.4355   54.0324 C.3     1  ZINC000279593480   -0.0900
      6 C6         -1.1528    3.4277   53.9011 C.ar    1  ZINC000279593480   -0.0800
      7 C7         -1.7747    4.3032   53.0304 C.ar    1  ZINC000279593480   -0.1000
      8 C8         -3.1516    4.2966   52.9096 C.ar    1  ZINC000279593480   -0.1100
      9 C9         -3.9074    3.4136   53.6601 C.ar    1  ZINC000279593480   -0.0400
     10 Cl10       -5.6367    3.4044   53.5084 Cl      1  ZINC000279593480   -0.0700
     11 C11        -3.2844    2.5378   54.5312 C.ar    1  ZINC000279593480   -0.1100
     12 C12        -1.9071    2.5414   54.6471 C.ar    1  ZINC000279593480   -0.1000
     13 N13         0.3033    2.6414   51.7197 N.am    1  ZINC000279593480   -0.7400
     14 C14         0.2746    2.9173   50.4008 C.2     1  ZINC000279593480    0.7100
     15 O15         0.8128    3.9225   49.9782 O.2     1  ZINC000279593480   -0.5800
     16 N16        -0.3503    2.0792   49.5503 N.am    1  ZINC000279593480   -0.7500
     17 C17        -0.3799    2.3783   48.1165 C.3     1  ZINC000279593480    0.1200
     18 C18        -1.3900    1.4606   47.4248 C.3     1  ZINC000279593480    0.0900
     19 O19        -2.5551    1.2987   48.2362 O.3     1  ZINC000279593480   -0.5400
     20 C20        -1.7678    2.0211   46.0354 C.3     1  ZINC000279593480   -0.1900
     21 C21        -1.3126    0.9215   45.0505 C.3     1  ZINC000279593480    0.0500
     22 O22        -1.2978   -0.2921   45.8335 O.3     1  ZINC000279593480   -0.3600
     23 C23        -0.7512    0.0886   47.1150 C.3     1  ZINC000279593480    0.0900
     24 H24         0.3332    0.1803   47.0529 H       1  ZINC000279593480    0.0800
     25 C25        -1.1378   -0.9352   48.1843 C.3     1  ZINC000279593480   -0.1400
     26 H26         2.9188    4.7342   54.1549 H       1  ZINC000279593480    0.0600
     27 H27         4.3244    4.1475   53.2338 H       1  ZINC000279593480    0.0400
     28 H28         3.1330    5.2161   52.4549 H       1  ZINC000279593480    0.0600
     29 H29         2.8132    2.8612   51.7470 H       1  ZINC000279593480    0.0600
     30 H30         2.5991    2.3792   53.4471 H       1  ZINC000279593480    0.0700
     31 H31         0.6767    2.5092   54.5039 H       1  ZINC000279593480    0.0800
     32 H32         0.6553    4.2834   54.6447 H       1  ZINC000279593480    0.0900
     33 H33        -1.1846    4.9926   52.4448 H       1  ZINC000279593480    0.1300
     34 H34        -3.6374    4.9807   52.2296 H       1  ZINC000279593480    0.1300
     35 H35        -3.8739    1.8485   55.1176 H       1  ZINC000279593480    0.1300
     36 H36        -1.4206    1.8575   55.3268 H       1  ZINC000279593480    0.1300
     37 H37        -0.1250    1.8389   52.0567 H       1  ZINC000279593480    0.3900
     38 H38        -0.7807    1.2780   49.8875 H       1  ZINC000279593480    0.3900
     39 H39        -0.6723    3.4178   47.9681 H       1  ZINC000279593480    0.0800
     40 H40         0.6102    2.2151   47.6907 H       1  ZINC000279593480    0.0800
     41 H41        -2.4623    0.6300   48.9286 H       1  ZINC000279593480    0.3700
     42 H42        -2.8446    2.1745   45.9654 H       1  ZINC000279593480    0.0900
     43 H43        -1.2350    2.9520   45.8413 H       1  ZINC000279593480    0.0900
     44 H44        -2.0209    0.8329   44.2268 H       1  ZINC000279593480    0.1000
     45 H45        -0.3144    1.1408   44.6718 H       1  ZINC000279593480    0.0600
     46 H46        -0.7249   -1.9090   47.9211 H       1  ZINC000279593480    0.0600
     47 H47        -0.7401   -0.6206   49.1492 H       1  ZINC000279593480    0.0700
     48 H48        -2.2239   -1.0053   48.2444 H       1  ZINC000279593480    0.0700
@<TRIPOS>BOND
     1     1     2    1
     2     1    26    1
     3     1    27    1
     4     1    28    1
     5     2     3    1
     6     2    29    1
     7     2    30    1
     8     3     4    1
     9     3     5    1
    10     3    13    1
    11     5     6    1
    12     5    31    1
    13     5    32    1
    14     6    12   ar
    15     6     7   ar
    16     7     8   ar
    17     7    33    1
    18     8     9   ar
    19     8    34    1
    20     9    10    1
    21     9    11   ar
    22    11    12   ar
    23    11    35    1
    24    12    36    1
    25    13    14   am
    26    13    37    1
    27    14    15    2
    28    14    16   am
    29    16    17    1
    30    16    38    1
    31    17    18    1
    32    17    39    1
    33    17    40    1
    34    18    23    1
    35    18    19    1
    36    18    20    1
    37    19    41    1
    38    20    21    1
    39    20    42    1
    40    20    43    1
    41    21    22    1
    42    21    44    1
    43    21    45    1
    44    22    23    1
    45    23    24    1
    46    23    25    1
    47    25    46    1
    48    25    47    1
    49    25    48    1
@<TRIPOS>SUBSTRUCTURE
     1 ZINC000279593480        1 TEMP              0 ****  ****    0 ROOT


##########                                Name:    ZINC000600609084
##########                DOCK_Rotatable_Bonds:                   8
##########                         Heavy_Atoms:                  30
##########                    Molecular_Weight:             422.548
##########                DOCK_Rotatable_Bonds:                   8
##########                       Formal_Charge:           0.0100005
##########                     HBond_Acceptors:                   6
##########                        HBond_Donors:                   2
##########                         Heavy_Atoms:                  30
##########                          Grid_Score:          -31.150330
##########                     Grid_vdw_energy:          -30.622116
##########                      Grid_es_energy:           -0.528214
##########           Internal_energy_repulsive:           18.804617

@<TRIPOS>MOLECULE
ZINC000600609084
 56 59 1 0 0
SMALL
USER_CHARGES


@<TRIPOS>ATOM
      1 O1          1.6159    2.5840   53.4072 O.2     1  ZINC000600609084   -0.5300
      2 C2          0.9663    3.5626   53.7095 C.2     1  ZINC000600609084    0.5200
      3 C3          0.6415    4.6024   52.6681 C.3     1  ZINC000600609084   -0.1500
      4 C4         -0.5843    4.1575   51.8680 C.3     1  ZINC000600609084    0.1300
      5 N5         -0.9280    5.1895   50.8868 N.am    1  ZINC000600609084   -1.1200
      6 S6         -2.2976    5.0359   49.9686 S.o2    1  ZINC000600609084    2.7000
      7 O7         -3.3700    4.8330   50.8784 O.2     1  ZINC000600609084   -0.9600
      8 O8         -2.2692    6.0981   49.0250 O.2     1  ZINC000600609084   -0.9500
      9 C9         -2.1408    3.5445   49.0436 C.ar    1  ZINC000600609084   -0.6700
     10 C10        -2.5421    2.3381   49.6134 C.ar    1  ZINC000600609084   -0.0400
     11 C11        -2.4345    1.1681   48.9261 C.ar    1  ZINC000600609084   -0.1200
     12 C12        -1.9115    1.1735   47.6220 C.ar    1  ZINC000600609084   -0.0100
     13 C13        -1.7856   -0.0140   46.8810 C.ar    1  ZINC000600609084   -0.1200
     14 C14        -1.2748    0.0299   45.6204 C.ar    1  ZINC000600609084   -0.0900
     15 C15        -0.8734    1.2368   45.0502 C.ar    1  ZINC000600609084   -0.1200
     16 C16        -0.9804    2.4064   45.7376 C.ar    1  ZINC000600609084   -0.0900
     17 C17        -1.5033    2.4009   47.0422 C.ar    1  ZINC000600609084   -0.0800
     18 C18        -1.6348    3.5890   47.7806 C.ar    1  ZINC000600609084    0.0200
     19 N19         0.5302    3.7173   54.9753 N.am    1  ZINC000600609084   -0.7200
     20 C20         0.8459    2.7065   55.9875 C.3     1  ZINC000600609084    0.1400
     21 H21         0.9077    1.7216   55.5247 H       1  ZINC000600609084    0.1000
     22 C22         2.1782    3.0493   56.6770 C.3     1  ZINC000600609084   -0.1300
     23 C23         1.8618    3.2462   58.1740 C.3     1  ZINC000600609084   -0.1300
     24 C24         0.3570    3.6120   58.1993 C.3     1  ZINC000600609084   -0.1200
     25 C25        -0.2342    2.7062   57.0889 C.3     1  ZINC000600609084   -0.0700
     26 H26        -0.3951    1.6962   57.4660 H       1  ZINC000600609084    0.0900
     27 C27        -1.5243    3.2848   56.5674 C.ar    1  ZINC000600609084   -0.0600
     28 C28        -1.6329    4.6454   56.3483 C.ar    1  ZINC000600609084   -0.1100
     29 C29        -2.8162    5.1761   55.8700 C.ar    1  ZINC000600609084   -0.1200
     30 C30        -3.8909    4.3462   55.6103 C.ar    1  ZINC000600609084   -0.1200
     31 C31        -3.7819    2.9855   55.8287 C.ar    1  ZINC000600609084   -0.1200
     32 C32        -2.5972    2.4543   56.3028 C.ar    1  ZINC000600609084   -0.1100
     33 H33         0.4305    5.5532   53.1574 H       1  ZINC000600609084    0.1000
     34 H34         1.4911    4.7207   51.9954 H       1  ZINC000600609084    0.1000
     35 H35        -0.3615    3.2242   51.3508 H       1  ZINC000600609084    0.0900
     36 H36        -1.4248    4.0057   52.5453 H       1  ZINC000600609084    0.0800
     37 H37        -0.3533    5.9630   50.7748 H       1  ZINC000600609084    0.4200
     38 H38        -2.9440    2.3310   50.6159 H       1  ZINC000600609084    0.1400
     39 H39        -2.7492    0.2403   49.3808 H       1  ZINC000600609084    0.1400
     40 H40        -2.0921   -0.9567   47.3099 H       1  ZINC000600609084    0.1300
     41 H41        -1.1787   -0.8842   45.0533 H       1  ZINC000600609084    0.1300
     42 H42        -0.4709    1.2437   44.0480 H       1  ZINC000600609084    0.1300
     43 H43        -0.6650    3.3340   45.2832 H       1  ZINC000600609084    0.1300
     44 H44        -1.3324    4.5321   47.3499 H       1  ZINC000600609084    0.1500
     45 H45         0.0072    4.4980   55.2160 H       1  ZINC000600609084    0.4000
     46 H46         2.8861    2.2304   56.5495 H       1  ZINC000600609084    0.0800
     47 H47         2.5898    3.9677   56.2584 H       1  ZINC000600609084    0.0700
     48 H48         2.0393    2.3232   58.7260 H       1  ZINC000600609084    0.0700
     49 H49         2.4591    4.0593   58.5864 H       1  ZINC000600609084    0.0700
     50 H50        -0.0826    3.3727   59.1676 H       1  ZINC000600609084    0.0700
     51 H51         0.2113    4.6648   57.9574 H       1  ZINC000600609084    0.0700
     52 H52        -0.7933    5.2936   56.5511 H       1  ZINC000600609084    0.1200
     53 H53        -2.9013    6.2391   55.6995 H       1  ZINC000600609084    0.1200
     54 H54        -4.8157    4.7610   55.2374 H       1  ZINC000600609084    0.1200
     55 H55        -4.6217    2.3373   55.6262 H       1  ZINC000600609084    0.1200
     56 H56        -2.5122    1.3912   56.4734 H       1  ZINC000600609084    0.1200
@<TRIPOS>BOND
     1     1     2    2
     2     2     3    1
     3     2    19   am
     4     3     4    1
     5     3    33    1
     6     3    34    1
     7     4     5    1
     8     4    35    1
     9     4    36    1
    10     5     6   am
    11     5    37    1
    12     6     7    2
    13     6     8    2
    14     6     9    1
    15     9    18   ar
    16     9    10   ar
    17    10    11   ar
    18    10    38    1
    19    11    12   ar
    20    11    39    1
    21    12    17   ar
    22    12    13   ar
    23    13    14   ar
    24    13    40    1
    25    14    15   ar
    26    14    41    1
    27    15    16   ar
    28    15    42    1
    29    16    17   ar
    30    16    43    1
    31    17    18   ar
    32    18    44    1
    33    19    20    1
    34    19    45    1
    35    20    21    1
    36    20    25    1
    37    20    22    1
    38    22    23    1
    39    22    46    1
    40    22    47    1
    41    23    24    1
    42    23    48    1
    43    23    49    1
    44    24    25    1
    45    24    50    1
    46    24    51    1
    47    25    26    1
    48    25    27    1
    49    27    32   ar
    50    27    28   ar
    51    28    29   ar
    52    28    52    1
    53    29    30   ar
    54    29    53    1
    55    30    31   ar
    56    30    54    1
    57    31    32   ar
    58    31    55    1
    59    32    56    1
@<TRIPOS>SUBSTRUCTURE
     1 ZINC000600609084        1 TEMP              0 ****  ****    0 ROOT


##########                                Name:    ZINC001757264545
##########                DOCK_Rotatable_Bonds:                  11
##########                         Heavy_Atoms:                  25
##########                    Molecular_Weight:             344.497
##########                DOCK_Rotatable_Bonds:                  11
##########                       Formal_Charge:          0.00999946
##########                     HBond_Acceptors:                   4
##########                        HBond_Donors:                   2
##########                         Heavy_Atoms:                  25
##########                          Grid_Score:          -31.143322
##########                     Grid_vdw_energy:          -29.877541
##########                      Grid_es_energy:           -1.265782
##########           Internal_energy_repulsive:            9.778690

@<TRIPOS>MOLECULE
ZINC001757264545
 57 57 1 0 0
SMALL
USER_CHARGES


@<TRIPOS>ATOM
      1 C1         -3.5289    3.4536   51.6055 C.1     1  ZINC001757264545   -0.2100
      2 C2         -4.3838    3.3835   52.4072 C.1     1  ZINC001757264545   -0.1900
      3 C3         -5.4556    3.2957   53.4123 C.3     1  ZINC001757264545   -0.0100
      4 C4         -4.8433    3.0271   54.7885 C.3     1  ZINC001757264545   -0.1200
      5 C5         -5.9526    2.9882   55.8414 C.3     1  ZINC001757264545   -0.1200
      6 C6         -5.3335    2.8010   57.2279 C.3     1  ZINC001757264545   -0.1000
      7 C7         -6.4016    3.0312   58.2988 C.3     1  ZINC001757264545   -0.1400
      8 C8         -6.9965    1.7083   58.7077 C.2     1  ZINC001757264545    0.5100
      9 O9         -7.0440    0.7933   57.9130 O.2     1  ZINC001757264545   -0.5400
     10 N10        -7.4759    1.5420   59.9563 N.am    1  ZINC001757264545   -0.7300
     11 C11        -8.0525    0.2555   60.3542 C.3     1  ZINC001757264545    0.1400
     12 H12        -7.4143   -0.5540   59.9998 H       1  ZINC001757264545    0.1000
     13 C13        -9.4471    0.1105   59.7420 C.3     1  ZINC001757264545   -0.1300
     14 C14       -10.0495   -1.2332   60.1576 C.3     1  ZINC001757264545   -0.1200
     15 C15       -10.1529   -1.2958   61.6828 C.3     1  ZINC001757264545   -0.1200
     16 C16        -8.7582   -1.1509   62.2950 C.3     1  ZINC001757264545   -0.1300
     17 C17        -8.1560    0.1929   61.8794 C.3     1  ZINC001757264545    0.1400
     18 H18        -8.7943    1.0022   62.2338 H       1  ZINC001757264545    0.1000
     19 N19        -6.8206    0.3316   62.4656 N.am    1  ZINC001757264545   -0.7200
     20 C20        -6.5115    1.4280   63.1860 C.2     1  ZINC001757264545    0.6400
     21 O21        -7.3416    2.3013   63.3507 O.2     1  ZINC001757264545   -0.5200
     22 C22        -5.2055    1.5644   63.7575 C.1     1  ZINC001757264545   -0.2300
     23 C23        -4.1349    1.6763   64.2261 C.1     1  ZINC001757264545   -0.0500
     24 C24        -2.7925    1.8167   64.8135 C.3     1  ZINC001757264545    0.0300
     25 C25        -2.0093    0.5180   64.6117 C.3     1  ZINC001757264545   -0.1400
     26 C26        -2.0544    2.9690   64.1293 C.3     1  ZINC001757264545   -0.1400
     27 C27        -2.9187    2.1089   66.3100 C.3     1  ZINC001757264545   -0.1400
     28 H28        -2.7644    3.5163   50.8885 H       1  ZINC001757264545    0.2200
     29 H29        -6.1329    2.4827   53.1511 H       1  ZINC001757264545    0.0900
     30 H30        -6.0079    4.2351   53.4374 H       1  ZINC001757264545    0.0900
     31 H31        -4.1376    3.8208   55.0334 H       1  ZINC001757264545    0.0700
     32 H32        -4.3226    2.0697   54.7739 H       1  ZINC001757264545    0.0700
     33 H33        -6.6262    2.1579   55.6292 H       1  ZINC001757264545    0.0700
     34 H34        -6.5106    3.9243   55.8160 H       1  ZINC001757264545    0.0700
     35 H35        -4.5228    3.5169   57.3636 H       1  ZINC001757264545    0.0700
     36 H36        -4.9420    1.7877   57.3172 H       1  ZINC001757264545    0.0700
     37 H37        -7.1856    3.6737   57.8979 H       1  ZINC001757264545    0.0900
     38 H38        -5.9484    3.5097   59.1671 H       1  ZINC001757264545    0.0900
     39 H39        -7.4390    2.2742   60.5915 H       1  ZINC001757264545    0.4000
     40 H40       -10.0854    0.9199   60.0964 H       1  ZINC001757264545    0.0700
     41 H41        -9.3734    0.1550   58.6554 H       1  ZINC001757264545    0.0800
     42 H42       -11.0430   -1.3365   59.7215 H       1  ZINC001757264545    0.0700
     43 H43        -9.4112   -2.0426   59.8033 H       1  ZINC001757264545    0.0700
     44 H44       -10.5820   -2.2530   61.9789 H       1  ZINC001757264545    0.0700
     45 H45       -10.7912   -0.4864   62.0372 H       1  ZINC001757264545    0.0700
     46 H46        -8.1199   -1.9603   61.9407 H       1  ZINC001757264545    0.0700
     47 H47        -8.8320   -1.1955   63.3816 H       1  ZINC001757264545    0.0800
     48 H48        -6.1588   -0.3655   62.3352 H       1  ZINC001757264545    0.4000
     49 H49        -1.9193    0.3098   63.5455 H       1  ZINC001757264545    0.0600
     50 H50        -1.0152    0.6219   65.0467 H       1  ZINC001757264545    0.0700
     51 H51        -2.5352   -0.3030   65.0991 H       1  ZINC001757264545    0.0600
     52 H52        -2.6124    3.8942   64.2730 H       1  ZINC001757264545    0.0600
     53 H53        -1.0604    3.0729   64.5643 H       1  ZINC001757264545    0.0700
     54 H54        -1.9645    2.7608   63.0631 H       1  ZINC001757264545    0.0600
     55 H55        -3.4447    1.2879   66.7975 H       1  ZINC001757264545    0.0600
     56 H56        -1.9247    2.2128   66.7450 H       1  ZINC001757264545    0.0700
     57 H57        -3.4768    3.0341   66.4537 H       1  ZINC001757264545    0.0600
@<TRIPOS>BOND
     1     1     2    3
     2     1    28    1
     3     2     3    1
     4     3     4    1
     5     3    29    1
     6     3    30    1
     7     4     5    1
     8     4    31    1
     9     4    32    1
    10     5     6    1
    11     5    33    1
    12     5    34    1
    13     6     7    1
    14     6    35    1
    15     6    36    1
    16     7     8    1
    17     7    37    1
    18     7    38    1
    19     8     9    2
    20     8    10   am
    21    10    11    1
    22    10    39    1
    23    11    12    1
    24    11    17    1
    25    11    13    1
    26    13    14    1
    27    13    40    1
    28    13    41    1
    29    14    15    1
    30    14    42    1
    31    14    43    1
    32    15    16    1
    33    15    44    1
    34    15    45    1
    35    16    17    1
    36    16    46    1
    37    16    47    1
    38    17    18    1
    39    17    19    1
    40    19    20   am
    41    19    48    1
    42    20    21    2
    43    20    22    1
    44    22    23    3
    45    23    24    1
    46    24    25    1
    47    24    26    1
    48    24    27    1
    49    25    49    1
    50    25    50    1
    51    25    51    1
    52    26    52    1
    53    26    53    1
    54    26    54    1
    55    27    55    1
    56    27    56    1
    57    27    57    1
@<TRIPOS>SUBSTRUCTURE
     1 ZINC001757264545        1 TEMP              0 ****  ****    0 ROOT


##########                                Name:    ZINC000541000201
##########                DOCK_Rotatable_Bonds:                  10
##########                         Heavy_Atoms:                  30
##########                    Molecular_Weight:             420.413
##########                DOCK_Rotatable_Bonds:                  10
##########                       Formal_Charge:               -0.03
##########                     HBond_Acceptors:                   9
##########                        HBond_Donors:                   1
##########                         Heavy_Atoms:                  30
##########                          Grid_Score:          -31.116148
##########                     Grid_vdw_energy:          -29.857779
##########                      Grid_es_energy:           -1.258369
##########           Internal_energy_repulsive:           16.209866

@<TRIPOS>MOLECULE
ZINC000541000201
 52 54 1 0 0
SMALL
USER_CHARGES


@<TRIPOS>ATOM
      1 C1          1.6449    3.2371   52.7938 C.3     1  ZINC000541000201    0.0400
      2 O2          0.3485    3.2024   52.1408 O.3     1  ZINC000541000201   -0.3500
      3 C3          0.3426    3.0837   50.8037 C.2     1  ZINC000541000201    0.4500
      4 O4          1.3267    2.6833   50.2285 O.2     1  ZINC000541000201   -0.4900
      5 C5         -0.8914    3.4500   50.0202 C.3     1  ZINC000541000201    0.2100
      6 H6         -0.8466    4.5033   49.7431 H       1  ZINC000541000201    0.1400
      7 N7         -2.0804    3.2117   50.8423 N.am    1  ZINC000541000201   -0.7100
      8 C8         -2.4785    4.1385   51.7362 C.2     1  ZINC000541000201    0.5800
      9 O9         -1.8502    5.1718   51.8613 O.2     1  ZINC000541000201   -0.5300
     10 C10        -3.6776    3.8991   52.5633 C.ar    1  ZINC000541000201   -0.2300
     11 C11        -4.0061    4.7726   53.6102 C.ar    1  ZINC000541000201    0.0200
     12 C12        -5.1368    4.5067   54.3552 C.ar    1  ZINC000541000201   -0.2000
     13 C13        -5.9079    3.3905   54.0465 C.ar    1  ZINC000541000201    0.3500
     14 O14        -7.0192    3.1245   54.7745 O.3     1  ZINC000541000201   -0.2900
     15 C15        -6.9707    3.4339   56.1689 C.3     1  ZINC000541000201    0.0800
     16 C16        -8.2824    2.9967   56.8671 C.3     1  ZINC000541000201   -0.1400
     17 C17        -7.8441    2.8283   58.3431 C.3     1  ZINC000541000201   -0.1200
     18 C18        -6.4302    2.2184   58.2508 C.3     1  ZINC000541000201   -0.1200
     19 C19        -5.8748    2.6034   56.8683 C.3     1  ZINC000541000201   -0.1200
     20 N20        -5.5714    2.5845   53.0509 N.ar    1  ZINC000541000201   -0.5400
     21 C21        -4.5045    2.8034   52.3114 C.ar    1  ZINC000541000201    0.1800
     22 C22        -0.9646    2.6054   48.7744 C.ar    1  ZINC000541000201   -0.1300
     23 C23        -0.9528    3.2085   47.5301 C.ar    1  ZINC000541000201   -0.0700
     24 C24        -1.0199    2.4364   46.3865 C.ar    1  ZINC000541000201   -0.1300
     25 C25        -1.0986    1.0550   46.4872 C.ar    1  ZINC000541000201    0.1200
     26 O26        -1.1642    0.2934   45.3636 O.3     1  ZINC000541000201   -0.3200
     27 C27        -0.4282    0.7496   44.2268 C.3     1  ZINC000541000201    0.4100
     28 F28         0.9004    0.9865   44.5957 F       1  ZINC000541000201   -0.2000
     29 F29        -0.4670   -0.2253   43.2241 F       1  ZINC000541000201   -0.2000
     30 C30        -1.1098    0.4524   47.7367 C.ar    1  ZINC000541000201   -0.1900
     31 C31        -1.0378    1.2286   48.8772 C.ar    1  ZINC000541000201   -0.0500
     32 H32         1.5069    3.3353   53.8706 H       1  ZINC000541000201    0.1000
     33 H33         2.1846    2.3147   52.5793 H       1  ZINC000541000201    0.0600
     34 H34         2.2165    4.0874   52.4218 H       1  ZINC000541000201    0.0600
     35 H35        -2.5811    2.3868   50.7434 H       1  ZINC000541000201    0.4100
     36 H36        -3.3891    5.6318   53.8282 H       1  ZINC000541000201    0.1600
     37 H37        -5.4199    5.1577   55.1691 H       1  ZINC000541000201    0.1500
     38 H38        -6.7945    4.4993   56.3164 H       1  ZINC000541000201    0.1000
     39 H39        -9.0447    3.7705   56.7764 H       1  ZINC000541000201    0.0700
     40 H40        -8.6400    2.0509   56.4600 H       1  ZINC000541000201    0.0800
     41 H41        -7.8102    3.7960   58.8438 H       1  ZINC000541000201    0.0700
     42 H42        -8.5186    2.1504   58.8663 H       1  ZINC000541000201    0.0700
     43 H43        -5.7947    2.6283   59.0358 H       1  ZINC000541000201    0.0700
     44 H44        -6.4848    1.1337   58.3423 H       1  ZINC000541000201    0.0700
     45 H45        -5.6599    1.7056   56.2890 H       1  ZINC000541000201    0.0800
     46 H46        -4.9699    3.2001   56.9824 H       1  ZINC000541000201    0.0700
     47 H47        -4.2623    2.1240   51.5076 H       1  ZINC000541000201    0.1600
     48 H48        -0.8915    4.2838   47.4523 H       1  ZINC000541000201    0.1300
     49 H49        -1.0113    2.9079   45.4149 H       1  ZINC000541000201    0.1400
     50 H50        -0.8715    1.6728   43.8534 H       1  ZINC000541000201    0.1900
     51 H51        -1.1714   -0.6228   47.8177 H       1  ZINC000541000201    0.1400
     52 H52        -1.0461    0.7599   49.8502 H       1  ZINC000541000201    0.1400
@<TRIPOS>BOND
     1     1     2    1
     2     1    32    1
     3     1    33    1
     4     1    34    1
     5     2     3    1
     6     3     4    2
     7     3     5    1
     8     5     6    1
     9     5     7    1
    10     5    22    1
    11     7     8   am
    12     7    35    1
    13     8     9    2
    14     8    10    1
    15    10    21   ar
    16    10    11   ar
    17    11    12   ar
    18    11    36    1
    19    12    13   ar
    20    12    37    1
    21    13    14    1
    22    13    20   ar
    23    14    15    1
    24    15    19    1
    25    15    16    1
    26    15    38    1
    27    16    17    1
    28    16    39    1
    29    16    40    1
    30    17    18    1
    31    17    41    1
    32    17    42    1
    33    18    19    1
    34    18    43    1
    35    18    44    1
    36    19    45    1
    37    19    46    1
    38    20    21   ar
    39    21    47    1
    40    22    31   ar
    41    22    23   ar
    42    23    24   ar
    43    23    48    1
    44    24    25   ar
    45    24    49    1
    46    25    26    1
    47    25    30   ar
    48    26    27    1
    49    27    28    1
    50    27    29    1
    51    27    50    1
    52    30    31   ar
    53    30    51    1
    54    31    52    1
@<TRIPOS>SUBSTRUCTURE
     1 ZINC000541000201        1 TEMP              0 ****  ****    0 ROOT


##########                                Name:    ZINC000847397179
##########                DOCK_Rotatable_Bonds:                   9
##########                         Heavy_Atoms:                  25
##########                    Molecular_Weight:             350.461
##########                DOCK_Rotatable_Bonds:                   9
##########                       Formal_Charge:          0.00999979
##########                     HBond_Acceptors:                   7
##########                        HBond_Donors:                   2
##########                         Heavy_Atoms:                  25
##########                          Grid_Score:          -31.096802
##########                     Grid_vdw_energy:          -29.914474
##########                      Grid_es_energy:           -1.182328
##########           Internal_energy_repulsive:           86.199471

@<TRIPOS>MOLECULE
ZINC000847397179
 55 56 1 0 0
SMALL
USER_CHARGES


@<TRIPOS>ATOM
      1 C1        -15.8305   -2.1132   59.7485 C.3     1  ZINC000847397179   -0.1500
      2 C2        -14.4872   -2.3943   59.0722 C.3     1  ZINC000847397179   -0.1000
      3 H3        -14.3480   -1.7045   58.2399 H       1  ZINC000847397179    0.0900
      4 C4        -14.4699   -3.8326   58.5508 C.3     1  ZINC000847397179   -0.0200
      5 C5        -14.9230   -3.8515   57.1138 C.2     1  ZINC000847397179    0.0100
      6 C6        -14.7541   -4.8656   56.2440 C.2     1  ZINC000847397179   -0.0500
      7 N7        -15.3115   -4.4679   55.0587 N.pl3   1  ZINC000847397179   -0.5700
      8 C8        -15.8020   -3.2237   55.2456 C.2     1  ZINC000847397179    0.1800
      9 N9        -15.5705   -2.8636   56.4784 N.2     1  ZINC000847397179   -0.4900
     10 C10       -13.3737   -2.2084   60.0705 C.2     1  ZINC000847397179    0.5200
     11 O11       -13.5977   -2.3223   61.2570 O.2     1  ZINC000847397179   -0.5300
     12 N12       -12.1289   -1.9157   59.6448 N.am    1  ZINC000847397179   -0.7400
     13 C13       -11.0468   -1.7332   60.6154 C.3     1  ZINC000847397179    0.1200
     14 C14        -9.7973   -1.2215   59.8958 C.3     1  ZINC000847397179    0.1500
     15 H15        -9.4333   -1.9846   59.2080 H       1  ZINC000847397179    0.0800
     16 C16       -10.1393    0.0519   59.1159 C.3     1  ZINC000847397179   -0.1300
     17 C17        -8.8593    0.6356   58.5133 C.3     1  ZINC000847397179   -0.1200
     18 C18        -7.8865    1.0035   59.6361 C.3     1  ZINC000847397179   -0.1400
     19 C19        -7.5190   -0.2591   60.4220 C.3     1  ZINC000847397179    0.1100
     20 N20        -8.7540   -0.9094   60.8822 N.am    1  ZINC000847397179   -0.5900
     21 C21        -8.9281   -1.2090   62.1846 C.2     1  ZINC000847397179    0.6500
     22 O22        -9.9537   -1.7466   62.5526 O.2     1  ZINC000847397179   -0.5500
     23 O23        -7.9655   -0.9125   63.0781 O.3     1  ZINC000847397179   -0.3600
     24 C24        -8.1777    0.2568   63.9122 C.3     1  ZINC000847397179    0.1400
     25 C25        -9.4014    1.0260   63.4105 C.3     1  ZINC000847397179   -0.1800
     26 C26        -8.4102   -0.1839   65.3588 C.3     1  ZINC000847397179   -0.1400
     27 C27        -6.9449    1.1607   63.8463 C.3     1  ZINC000847397179   -0.1800
     28 H28       -15.9698   -2.8030   60.5808 H       1  ZINC000847397179    0.0500
     29 H29       -15.8428   -1.0884   60.1199 H       1  ZINC000847397179    0.0500
     30 H30       -16.6360   -2.2476   59.0264 H       1  ZINC000847397179    0.1000
     31 H31       -13.4576   -4.2313   58.6180 H       1  ZINC000847397179    0.0800
     32 H32       -15.1421   -4.4451   59.1519 H       1  ZINC000847397179    0.0800
     33 H33       -14.2712   -5.8109   56.4431 H       1  ZINC000847397179    0.1800
     34 H34       -15.3473   -4.9835   54.2378 H       1  ZINC000847397179    0.4200
     35 H35       -16.3060   -2.6272   54.4996 H       1  ZINC000847397179    0.2100
     36 H36       -11.9496   -1.8258   58.6958 H       1  ZINC000847397179    0.3900
     37 H37       -11.3538   -1.0092   61.3700 H       1  ZINC000847397179    0.0800
     38 H38       -10.8248   -2.6864   61.0954 H       1  ZINC000847397179    0.1000
     39 H39       -10.8408   -0.1882   58.3169 H       1  ZINC000847397179    0.0800
     40 H40       -10.5897    0.7812   59.7892 H       1  ZINC000847397179    0.0700
     41 H41        -8.3961   -0.1032   57.8593 H       1  ZINC000847397179    0.0700
     42 H42        -9.1033    1.5282   57.9373 H       1  ZINC000847397179    0.0700
     43 H43        -6.9847    1.4407   59.2076 H       1  ZINC000847397179    0.0800
     44 H44        -8.3582    1.7237   60.3047 H       1  ZINC000847397179    0.0700
     45 H45        -6.9669   -0.9430   59.7774 H       1  ZINC000847397179    0.0700
     46 H46        -6.9060    0.0112   61.2818 H       1  ZINC000847397179    0.0900
     47 H47       -10.2797    0.3822   63.4573 H       1  ZINC000847397179    0.0600
     48 H48        -9.5607    1.9040   64.0366 H       1  ZINC000847397179    0.0700
     49 H49        -9.2357    1.3400   62.3798 H       1  ZINC000847397179    0.0900
     50 H50        -7.5384   -0.7318   65.7163 H       1  ZINC000847397179    0.0700
     51 H51        -8.5695    0.6941   65.9848 H       1  ZINC000847397179    0.0800
     52 H52        -9.2885   -0.8277   65.4057 H       1  ZINC000847397179    0.0700
     53 H53        -6.7793    1.4748   62.8157 H       1  ZINC000847397179    0.0900
     54 H54        -7.1042    2.0387   64.4725 H       1  ZINC000847397179    0.0700
     55 H55        -6.0731    0.6128   64.2038 H       1  ZINC000847397179    0.0600
@<TRIPOS>BOND
     1     1     2    1
     2     1    28    1
     3     1    29    1
     4     1    30    1
     5     2     3    1
     6     2     4    1
     7     2    10    1
     8     4     5    1
     9     4    31    1
    10     4    32    1
    11     5     9    1
    12     5     6    2
    13     6     7    1
    14     6    33    1
    15     7     8    1
    16     7    34    1
    17     8     9    2
    18     8    35    1
    19    10    11    2
    20    10    12   am
    21    12    13    1
    22    12    36    1
    23    13    14    1
    24    13    37    1
    25    13    38    1
    26    14    15    1
    27    14    20    1
    28    14    16    1
    29    16    17    1
    30    16    39    1
    31    16    40    1
    32    17    18    1
    33    17    41    1
    34    17    42    1
    35    18    19    1
    36    18    43    1
    37    18    44    1
    38    19    20    1
    39    19    45    1
    40    19    46    1
    41    20    21   am
    42    21    22    2
    43    21    23    1
    44    23    24    1
    45    24    25    1
    46    24    26    1
    47    24    27    1
    48    25    47    1
    49    25    48    1
    50    25    49    1
    51    26    50    1
    52    26    51    1
    53    26    52    1
    54    27    53    1
    55    27    54    1
    56    27    55    1
@<TRIPOS>SUBSTRUCTURE
     1 ZINC000847397179        1 TEMP              0 ****  ****    0 ROOT


##########                                Name:    ZINC000655982608
##########                DOCK_Rotatable_Bonds:                   5
##########                         Heavy_Atoms:                  29
##########                    Molecular_Weight:             388.469
##########                DOCK_Rotatable_Bonds:                   5
##########                       Formal_Charge:          -0.0200006
##########                     HBond_Acceptors:                   6
##########                        HBond_Donors:                   0
##########                         Heavy_Atoms:                  29
##########                          Grid_Score:          -31.090908
##########                     Grid_vdw_energy:          -31.842583
##########                      Grid_es_energy:            0.751676
##########           Internal_energy_repulsive:           20.119715

@<TRIPOS>MOLECULE
ZINC000655982608
 53 57 1 0 0
SMALL
USER_CHARGES


@<TRIPOS>ATOM
      1 C1          0.6263    2.3964   49.1794 C.3     1  ZINC000655982608   -0.1900
      2 C2         -0.8474    2.6826   49.4747 C.3     1  ZINC000655982608    0.0800
      3 H3         -1.2440    1.9071   50.1299 H       1  ZINC000655982608    0.1000
      4 C4         -0.9749    4.0443   50.1607 C.3     1  ZINC000655982608   -0.0300
      5 C5         -0.8731    3.8661   51.6537 C.2     1  ZINC000655982608    0.2000
      6 N6         -1.8643    3.6439   52.4829 N.2     1  ZINC000655982608   -0.4800
      7 C7         -1.3032    3.5546   53.7020 C.2     1  ZINC000655982608    0.1700
      8 C8         -2.0261    3.3038   55.0003 C.3     1  ZINC000655982608   -0.0100
      9 H9         -1.4724    2.6015   55.6235 H       1  ZINC000655982608    0.1300
     10 C10        -2.2842    4.6287   55.7548 C.3     1  ZINC000655982608   -0.1400
     11 C11        -3.6483    4.4393   56.3810 C.2     1  ZINC000655982608    0.5200
     12 O12        -4.1021    5.1199   57.2764 O.2     1  ZINC000655982608   -0.5000
     13 N13        -4.2843    3.4073   55.8002 N.am    1  ZINC000655982608   -0.5600
     14 C14        -5.5636    2.9669   56.1568 C.ar    1  ZINC000655982608    0.1600
     15 C15        -5.9084    2.8421   57.4963 C.ar    1  ZINC000655982608   -0.1600
     16 C16        -7.1719    2.4070   57.8451 C.ar    1  ZINC000655982608   -0.0900
     17 C17        -8.0932    2.0953   56.8621 C.ar    1  ZINC000655982608   -0.1400
     18 C18        -7.7530    2.2180   55.5275 C.ar    1  ZINC000655982608   -0.0900
     19 C19        -6.4932    2.6589   55.1722 C.ar    1  ZINC000655982608   -0.1600
     20 C20        -3.4641    2.8009   54.7442 C.3     1  ZINC000655982608    0.1100
     21 N21        -0.0233    3.7239   53.5546 N.2     1  ZINC000655982608   -0.3700
     22 O22         0.2452    3.8986   52.3847 O.3     1  ZINC000655982608    0.0900
     23 N23        -1.6053    2.6954   48.2164 N.3     1  ZINC000655982608   -0.4700
     24 C24        -1.1982    3.8334   47.3638 C.3     1  ZINC000655982608    0.0300
     25 C25        -1.4149    3.2809   45.9363 C.3     1  ZINC000655982608   -0.0800
     26 C26        -1.2816    1.7836   46.1309 C.ar    1  ZINC000655982608   -0.1400
     27 C27        -1.0847    0.7582   45.2306 C.ar    1  ZINC000655982608   -0.0800
     28 C28        -0.9913   -0.5480   45.6770 C.ar    1  ZINC000655982608   -0.1400
     29 C29        -1.0953   -0.8235   47.0279 C.ar    1  ZINC000655982608   -0.0900
     30 C30        -1.2945    0.1988   47.9326 C.ar    1  ZINC000655982608   -0.1400
     31 C31        -1.3929    1.5168   47.4906 C.ar    1  ZINC000655982608    0.1000
     32 H32         1.1682    2.2766   50.1175 H       1  ZINC000655982608    0.0700
     33 H33         0.7083    1.4813   48.5931 H       1  ZINC000655982608    0.0700
     34 H34         1.0523    3.2275   48.6173 H       1  ZINC000655982608    0.0700
     35 H35        -0.1749    4.7003   49.8177 H       1  ZINC000655982608    0.1200
     36 H36        -1.9395    4.4871   49.9126 H       1  ZINC000655982608    0.1100
     37 H37        -1.5287    4.7822   56.5254 H       1  ZINC000655982608    0.1200
     38 H38        -2.2970    5.4676   55.0591 H       1  ZINC000655982608    0.1200
     39 H39        -5.1890    3.0846   58.2644 H       1  ZINC000655982608    0.1200
     40 H40        -7.4406    2.3098   58.8866 H       1  ZINC000655982608    0.1300
     41 H41        -9.0805    1.7551   57.1375 H       1  ZINC000655982608    0.1200
     42 H42        -8.4746    1.9733   54.7622 H       1  ZINC000655982608    0.1300
     43 H43        -6.2281    2.7545   54.1296 H       1  ZINC000655982608    0.1500
     44 H44        -3.8088    3.1290   53.7637 H       1  ZINC000655982608    0.0900
     45 H45        -3.5027    1.7138   54.8141 H       1  ZINC000655982608    0.1000
     46 H46        -1.8355    4.6991   47.5442 H       1  ZINC000655982608    0.1000
     47 H47        -0.1499    4.0830   47.5268 H       1  ZINC000655982608    0.0700
     48 H48        -2.4097    3.5356   45.5706 H       1  ZINC000655982608    0.0900
     49 H49        -0.6465    3.6519   45.2581 H       1  ZINC000655982608    0.0800
     50 H50        -1.0037    0.9747   44.1757 H       1  ZINC000655982608    0.1200
     51 H51        -0.8378   -1.3512   44.9714 H       1  ZINC000655982608    0.1200
     52 H52        -1.0206   -1.8430   47.3762 H       1  ZINC000655982608    0.1300
     53 H53        -1.3753   -0.0230   48.9865 H       1  ZINC000655982608    0.1200
@<TRIPOS>BOND
     1     1     2    1
     2     1    32    1
     3     1    33    1
     4     1    34    1
     5     2     3    1
     6     2     4    1
     7     2    23    1
     8     4     5    1
     9     4    35    1
    10     4    36    1
    11     5    22    1
    12     5     6    2
    13     6     7    1
    14     7     8    1
    15     7    21    2
    16     8     9    1
    17     8    20    1
    18     8    10    1
    19    10    11    1
    20    10    37    1
    21    10    38    1
    22    11    12    2
    23    11    13   am
    24    13    14    1
    25    13    20    1
    26    14    19   ar
    27    14    15   ar
    28    15    16   ar
    29    15    39    1
    30    16    17   ar
    31    16    40    1
    32    17    18   ar
    33    17    41    1
    34    18    19   ar
    35    18    42    1
    36    19    43    1
    37    20    44    1
    38    20    45    1
    39    21    22    1
    40    23    31    1
    41    23    24    1
    42    24    25    1
    43    24    46    1
    44    24    47    1
    45    25    26    1
    46    25    48    1
    47    25    49    1
    48    26    31   ar
    49    26    27   ar
    50    27    28   ar
    51    27    50    1
    52    28    29   ar
    53    28    51    1
    54    29    30   ar
    55    29    52    1
    56    30    31   ar
    57    30    53    1
@<TRIPOS>SUBSTRUCTURE
     1 ZINC000655982608        1 TEMP              0 ****  ****    0 ROOT


##########                                Name:    ZINC000517001504
##########                DOCK_Rotatable_Bonds:                   5
##########                         Heavy_Atoms:                  29
##########                    Molecular_Weight:             403.401
##########                DOCK_Rotatable_Bonds:                   5
##########                       Formal_Charge:          -0.0200002
##########                     HBond_Acceptors:                   7
##########                        HBond_Donors:                   0
##########                         Heavy_Atoms:                  29
##########                          Grid_Score:          -31.076269
##########                     Grid_vdw_energy:          -28.019463
##########                      Grid_es_energy:           -3.056806
##########           Internal_energy_repulsive:           32.038990

@<TRIPOS>MOLECULE
ZINC000517001504
 49 52 1 0 0
SMALL
USER_CHARGES


@<TRIPOS>ATOM
      1 O1        -10.8255   -0.1422   63.7703 O.2     1  ZINC000517001504   -0.5200
      2 C2         -9.6817   -0.2004   63.3712 C.2     1  ZINC000517001504    0.5400
      3 N3         -9.3973   -0.8693   62.2361 N.am    1  ZINC000517001504   -0.6100
      4 C4         -8.0182   -0.9486   61.7290 C.3     1  ZINC000517001504    0.0600
      5 C5         -8.0224   -0.5420   60.2511 C.3     1  ZINC000517001504    0.0500
      6 O6         -9.0011   -1.3154   59.5527 O.3     1  ZINC000517001504   -0.3700
      7 C7        -10.3420   -1.1064   60.0025 C.3     1  ZINC000517001504    0.1200
      8 H8        -10.5945   -0.0496   59.9160 H       1  ZINC000517001504    0.0800
      9 C9        -11.2885   -1.9208   59.1586 C.ar    1  ZINC000517001504   -0.0600
     10 C10       -12.2658   -1.2899   58.4117 C.ar    1  ZINC000517001504   -0.0900
     11 C11       -13.1340   -2.0369   57.6377 C.ar    1  ZINC000517001504   -0.0700
     12 C12       -13.0247   -3.4146   57.6102 C.ar    1  ZINC000517001504   -0.1800
     13 C13       -13.9716   -4.2291   56.7668 C.3     1  ZINC000517001504    0.5100
     14 F14       -14.2696   -5.4271   57.4250 F       1  ZINC000517001504   -0.1800
     15 F15       -15.1506   -3.5055   56.5585 F       1  ZINC000517001504   -0.1800
     16 F16       -13.3732   -4.5108   55.5340 F       1  ZINC000517001504   -0.1800
     17 C17       -12.0466   -4.0454   58.3561 C.ar    1  ZINC000517001504   -0.0700
     18 C18       -11.1759   -3.2981   59.1271 C.ar    1  ZINC000517001504   -0.1000
     19 C19       -10.4558   -1.5469   61.4708 C.3     1  ZINC000517001504    0.0900
     20 C20        -8.5795    0.4802   64.1410 C.3     1  ZINC000517001504   -0.0600
     21 C21        -8.0208    1.6828   63.4250 C.ar    1  ZINC000517001504   -0.0700
     22 C22        -6.8416    2.2593   63.8587 C.ar    1  ZINC000517001504   -0.1200
     23 C23        -6.3292    3.3625   63.2019 C.ar    1  ZINC000517001504   -0.1100
     24 C24        -6.9957    3.8889   62.1112 C.ar    1  ZINC000517001504   -0.1100
     25 C25        -8.1743    3.3117   61.6771 C.ar    1  ZINC000517001504   -0.1100
     26 C26        -8.6845    2.2061   62.3312 C.ar    1  ZINC000517001504   -0.1000
     27 C27        -8.9285    0.7443   65.6158 C.3     1  ZINC000517001504   -0.1600
     28 C28        -8.3460   -0.6240   65.9093 C.2     1  ZINC000517001504    0.3600
     29 O29        -8.4925   -1.4611   66.7672 O.2     1  ZINC000517001504   -0.4100
     30 C30        -7.5003   -0.4863   64.6588 C.3     1  ZINC000517001504   -0.1900
     31 H31        -7.3795   -0.2703   62.2947 H       1  ZINC000517001504    0.1000
     32 H32        -7.6489   -1.9694   61.8278 H       1  ZINC000517001504    0.0800
     33 H33        -8.2664    0.5169   60.1655 H       1  ZINC000517001504    0.0600
     34 H34        -7.0382   -0.7254   59.8201 H       1  ZINC000517001504    0.1100
     35 H35       -12.3512   -0.2136   58.4331 H       1  ZINC000517001504    0.1400
     36 H36       -13.8981   -1.5441   57.0547 H       1  ZINC000517001504    0.1400
     37 H37       -11.9609   -5.1218   58.3343 H       1  ZINC000517001504    0.1400
     38 H38       -10.4117   -3.7910   59.7098 H       1  ZINC000517001504    0.1400
     39 H39       -10.3323   -2.6275   61.5404 H       1  ZINC000517001504    0.0800
     40 H40       -11.4313   -1.2621   61.8648 H       1  ZINC000517001504    0.1100
     41 H41        -6.3209    1.8481   64.7108 H       1  ZINC000517001504    0.1300
     42 H42        -5.4083    3.8134   63.5411 H       1  ZINC000517001504    0.1300
     43 H43        -6.5957    4.7511   61.5985 H       1  ZINC000517001504    0.1300
     44 H44        -8.6953    3.7231   60.8250 H       1  ZINC000517001504    0.1300
     45 H45        -9.6054    1.7551   61.9919 H       1  ZINC000517001504    0.1200
     46 H46        -8.3638    1.5645   66.0591 H       1  ZINC000517001504    0.1300
     47 H47        -9.9995    0.8139   65.8062 H       1  ZINC000517001504    0.1100
     48 H48        -7.4226   -1.4064   64.0796 H       1  ZINC000517001504    0.1000
     49 H49        -6.5350   -0.0113   64.8336 H       1  ZINC000517001504    0.1400
@<TRIPOS>BOND
     1     1     2    2
     2     2     3   am
     3     2    20    1
     4     3    19    1
     5     3     4    1
     6     4     5    1
     7     4    31    1
     8     4    32    1
     9     5     6    1
    10     5    33    1
    11     5    34    1
    12     6     7    1
    13     7     8    1
    14     7     9    1
    15     7    19    1
    16     9    18   ar
    17     9    10   ar
    18    10    11   ar
    19    10    35    1
    20    11    12   ar
    21    11    36    1
    22    12    13    1
    23    12    17   ar
    24    13    14    1
    25    13    15    1
    26    13    16    1
    27    17    18   ar
    28    17    37    1
    29    18    38    1
    30    19    39    1
    31    19    40    1
    32    20    30    1
    33    20    21    1
    34    20    27    1
    35    21    26   ar
    36    21    22   ar
    37    22    23   ar
    38    22    41    1
    39    23    24   ar
    40    23    42    1
    41    24    25   ar
    42    24    43    1
    43    25    26   ar
    44    25    44    1
    45    26    45    1
    46    27    28    1
    47    27    46    1
    48    27    47    1
    49    28    29    2
    50    28    30    1
    51    30    48    1
    52    30    49    1
@<TRIPOS>SUBSTRUCTURE
     1 ZINC000517001504        1 TEMP              0 ****  ****    0 ROOT


##########                                Name:    ZINC000859496582
##########                DOCK_Rotatable_Bonds:                  10
##########                         Heavy_Atoms:                  26
##########                    Molecular_Weight:             361.438
##########                DOCK_Rotatable_Bonds:                  10
##########                       Formal_Charge:           0.0100006
##########                     HBond_Acceptors:                   6
##########                        HBond_Donors:                   0
##########                         Heavy_Atoms:                  26
##########                          Grid_Score:          -31.068239
##########                     Grid_vdw_energy:          -29.610449
##########                      Grid_es_energy:           -1.457791
##########           Internal_energy_repulsive:           10.783668

@<TRIPOS>MOLECULE
ZINC000859496582
 53 54 1 0 0
SMALL
USER_CHARGES


@<TRIPOS>ATOM
      1 C1         -4.3632    2.1653   56.2299 C.3     1  ZINC000859496582    0.0300
      2 O2         -5.3068    1.8650   57.2919 O.3     1  ZINC000859496582   -0.3600
      3 C3         -6.4255    2.6053   57.3404 C.2     1  ZINC000859496582    0.4600
      4 O4         -6.5566    3.5511   56.6001 O.2     1  ZINC000859496582   -0.5100
      5 C5         -7.5178    2.2567   58.3183 C.3     1  ZINC000859496582   -0.1100
      6 C6         -7.6764    0.7363   58.3852 C.3     1  ZINC000859496582   -0.1100
      7 C7         -8.8959    0.3879   59.2409 C.3     1  ZINC000859496582   -0.1200
      8 C8         -8.8341   -1.0879   59.6399 C.3     1  ZINC000859496582    0.0700
      9 O9        -10.1594   -1.5419   60.0218 O.3     1  ZINC000859496582   -0.3500
     10 C10       -10.6182   -1.1443   61.2189 C.2     1  ZINC000859496582    0.4700
     11 O11        -9.9134   -1.2338   62.1962 O.2     1  ZINC000859496582   -0.5000
     12 C12       -12.0126   -0.5864   61.3439 C.3     1  ZINC000859496582   -0.1000
     13 H13       -12.1911    0.1299   60.5420 H       1  ZINC000859496582    0.1200
     14 C14       -12.1634    0.1134   62.6966 C.3     1  ZINC000859496582   -0.1100
     15 C15       -13.5685    0.7088   62.8111 C.3     1  ZINC000859496582   -0.1300
     16 C16       -14.6040   -0.4174   62.7313 C.3     1  ZINC000859496582    0.1100
     17 N17       -14.3727   -1.1860   61.5006 N.am    1  ZINC000859496582   -0.6100
     18 C18       -15.3729   -1.3908   60.6208 C.2     1  ZINC000859496582    0.5700
     19 O19       -16.4790   -0.9379   60.8418 O.2     1  ZINC000859496582   -0.5300
     20 C20       -15.1246   -2.1663   59.3868 C.ar    1  ZINC000859496582   -0.1400
     21 C21       -14.8359   -1.5072   58.1907 C.ar    1  ZINC000859496582   -0.0900
     22 C22       -14.6048   -2.2368   57.0430 C.ar    1  ZINC000859496582   -0.1200
     23 C23       -14.6592   -3.6190   57.0755 C.ar    1  ZINC000859496582   -0.0600
     24 C24       -14.4060   -4.4095   55.8177 C.3     1  ZINC000859496582   -0.1200
     25 C25       -14.9443   -4.2786   58.2579 C.ar    1  ZINC000859496582   -0.1200
     26 C26       -15.1722   -3.5610   59.4139 C.ar    1  ZINC000859496582   -0.0600
     27 C27       -13.0304   -1.7271   61.2467 C.3     1  ZINC000859496582    0.1100
     28 H28        -4.0272    3.1979   56.3236 H       1  ZINC000859496582    0.0600
     29 H29        -3.5062    1.4960   56.3053 H       1  ZINC000859496582    0.1000
     30 H30        -4.8480    2.0273   55.2634 H       1  ZINC000859496582    0.0600
     31 H31        -7.2573    2.6385   59.3054 H       1  ZINC000859496582    0.1100
     32 H32        -8.4556    2.7057   57.9909 H       1  ZINC000859496582    0.1100
     33 H33        -7.8137    0.3408   57.3788 H       1  ZINC000859496582    0.0800
     34 H34        -6.7832    0.2970   58.8296 H       1  ZINC000859496582    0.0800
     35 H35        -8.8992    1.0070   60.1380 H       1  ZINC000859496582    0.0800
     36 H36        -9.8055    0.5719   58.6691 H       1  ZINC000859496582    0.0800
     37 H37        -8.4772   -1.6779   58.7957 H       1  ZINC000859496582    0.0700
     38 H38        -8.1521   -1.2084   60.4816 H       1  ZINC000859496582    0.0700
     39 H39       -12.0085   -0.6088   63.4983 H       1  ZINC000859496582    0.0800
     40 H40       -11.4237    0.9099   62.7779 H       1  ZINC000859496582    0.0800
     41 H41       -13.6674    1.2270   63.7649 H       1  ZINC000859496582    0.0900
     42 H42       -13.7330    1.4127   61.9953 H       1  ZINC000859496582    0.0700
     43 H43       -14.4991   -1.0722   63.5963 H       1  ZINC000859496582    0.0700
     44 H44       -15.6069    0.0091   62.7127 H       1  ZINC000859496582    0.1000
     45 H45       -14.7940   -0.4283   58.1639 H       1  ZINC000859496582    0.1300
     46 H46       -14.3814   -1.7280   56.1169 H       1  ZINC000859496582    0.1300
     47 H47       -13.3426   -4.6342   55.7376 H       1  ZINC000859496582    0.0800
     48 H48       -14.9724   -5.3401   55.8533 H       1  ZINC000859496582    0.0700
     49 H49       -14.7203   -3.8258   54.9524 H       1  ZINC000859496582    0.0700
     50 H50       -14.9848   -5.3576   58.2766 H       1  ZINC000859496582    0.1300
     51 H51       -15.3943   -4.0771   60.3363 H       1  ZINC000859496582    0.1300
     52 H52       -12.9957   -2.1648   60.2490 H       1  ZINC000859496582    0.1100
     53 H53       -12.7967   -2.4888   61.9905 H       1  ZINC000859496582    0.0800
@<TRIPOS>BOND
     1     1     2    1
     2     1    28    1
     3     1    29    1
     4     1    30    1
     5     2     3    1
     6     3     4    2
     7     3     5    1
     8     5     6    1
     9     5    31    1
    10     5    32    1
    11     6     7    1
    12     6    33    1
    13     6    34    1
    14     7     8    1
    15     7    35    1
    16     7    36    1
    17     8     9    1
    18     8    37    1
    19     8    38    1
    20     9    10    1
    21    10    11    2
    22    10    12    1
    23    12    13    1
    24    12    27    1
    25    12    14    1
    26    14    15    1
    27    14    39    1
    28    14    40    1
    29    15    16    1
    30    15    41    1
    31    15    42    1
    32    16    17    1
    33    16    43    1
    34    16    44    1
    35    17    18   am
    36    17    27    1
    37    18    19    2
    38    18    20    1
    39    20    26   ar
    40    20    21   ar
    41    21    22   ar
    42    21    45    1
    43    22    23   ar
    44    22    46    1
    45    23    24    1
    46    23    25   ar
    47    24    47    1
    48    24    48    1
    49    24    49    1
    50    25    26   ar
    51    25    50    1
    52    26    51    1
    53    27    52    1
    54    27    53    1
@<TRIPOS>SUBSTRUCTURE
     1 ZINC000859496582        1 TEMP              0 ****  ****    0 ROOT


##########                                Name:    ZINC000281092425
##########                DOCK_Rotatable_Bonds:                   8
##########                         Heavy_Atoms:                  23
##########                    Molecular_Weight:             332.304
##########                DOCK_Rotatable_Bonds:                   8
##########                       Formal_Charge:         2.98023e-08
##########                     HBond_Acceptors:                   9
##########                        HBond_Donors:                   2
##########                         Heavy_Atoms:                  23
##########                          Grid_Score:          -31.065342
##########                     Grid_vdw_energy:          -30.067097
##########                      Grid_es_energy:           -0.998246
##########           Internal_energy_repulsive:           23.916868

@<TRIPOS>MOLECULE
ZINC000281092425
 41 42 1 0 0
SMALL
USER_CHARGES


@<TRIPOS>ATOM
      1 O1         -1.3771    0.8584   43.9177 O.2     1  ZINC000281092425   -0.1800
      2 N2         -1.4749    0.4194   45.0497 N.pl3   1  ZINC000281092425    0.0400
      3 O3         -1.4728   -0.7838   45.2386 O.2     1  ZINC000281092425   -0.1500
      4 C4         -1.5902    1.3483   46.1962 C.ar    1  ZINC000281092425   -0.1200
      5 C5         -1.5925    2.7132   45.9808 C.ar    1  ZINC000281092425    0.0200
      6 C6         -1.6999    3.5835   47.0483 C.ar    1  ZINC000281092425   -0.2200
      7 C7         -1.8065    3.0877   48.3418 C.ar    1  ZINC000281092425    0.3000
      8 N8         -1.9155    3.9673   49.4212 N.pl3   1  ZINC000281092425   -0.7200
      9 C9         -2.2865    3.4602   50.7446 C.3     1  ZINC000281092425    0.1200
     10 C10        -2.3918    4.6283   51.7272 C.3     1  ZINC000281092425   -0.0900
     11 H11        -1.4084    5.0782   51.8635 H       1  ZINC000281092425    0.0900
     12 C12        -3.3595    5.6755   51.1727 C.3     1  ZINC000281092425    0.0800
     13 O13        -2.6226    6.6877   50.4840 O.3     1  ZINC000281092425   -0.5700
     14 C14        -2.9096    4.1173   53.0733 C.3     1  ZINC000281092425   -0.1100
     15 H15        -2.3484    3.2400   53.3952 H       1  ZINC000281092425    0.0900
     16 C16        -2.8513    5.2361   54.1488 C.3     1  ZINC000281092425   -0.1600
     17 C17        -4.0015    4.7991   55.0905 C.3     1  ZINC000281092425    0.0500
     18 O18        -5.0139    4.2645   54.2229 O.3     1  ZINC000281092425   -0.3900
     19 C19        -4.4199    3.8063   52.9986 C.3     1  ZINC000281092425    0.0700
     20 C20        -1.8047    1.7166   48.5598 C.ar    1  ZINC000281092425   -0.2800
     21 C21        -1.7016    0.8471   47.4858 C.ar    1  ZINC000281092425    0.2300
     22 O22        -1.7002   -0.4956   47.6959 O.3     1  ZINC000281092425   -0.2900
     23 C23        -0.5598   -1.0476   48.3567 C.3     1  ZINC000281092425    0.4100
     24 F24        -0.3195   -2.3381   47.8725 F       1  ZINC000281092425   -0.1900
     25 F25         0.5571   -0.2418   48.1109 F       1  ZINC000281092425   -0.1900
     26 H26        -1.5098    3.1003   44.9760 H       1  ZINC000281092425    0.1600
     27 H27        -1.7008    4.6499   46.8774 H       1  ZINC000281092425    0.1500
     28 H28        -1.7456    4.9138   49.2947 H       1  ZINC000281092425    0.4100
     29 H29        -3.2478    2.9504   50.6820 H       1  ZINC000281092425    0.0800
     30 H30        -1.5262    2.7607   51.0919 H       1  ZINC000281092425    0.0800
     31 H31        -4.0545    5.1983   50.4817 H       1  ZINC000281092425    0.0500
     32 H32        -3.9163    6.1268   51.9941 H       1  ZINC000281092425    0.0500
     33 H33        -2.0849    6.3540   49.7528 H       1  ZINC000281092425    0.3800
     34 H34        -1.8937    5.2309   54.6696 H       1  ZINC000281092425    0.0800
     35 H35        -3.0525    6.2135   53.7103 H       1  ZINC000281092425    0.0800
     36 H36        -3.6532    4.0326   55.7827 H       1  ZINC000281092425    0.0600
     37 H37        -4.3882    5.6579   55.6391 H       1  ZINC000281092425    0.0900
     38 H38        -4.8621    4.3334   52.1532 H       1  ZINC000281092425    0.0800
     39 H39        -4.5775    2.7332   52.8901 H       1  ZINC000281092425    0.0700
     40 H40        -1.8875    1.3284   49.5643 H       1  ZINC000281092425    0.1500
     41 H41        -0.7473   -1.0912   49.4296 H       1  ZINC000281092425    0.1900
@<TRIPOS>BOND
     1     1     2    2
     2     2     3    2
     3     2     4    1
     4     4    21   ar
     5     4     5   ar
     6     5     6   ar
     7     5    26    1
     8     6     7   ar
     9     6    27    1
    10     7     8    1
    11     7    20   ar
    12     8     9    1
    13     8    28    1
    14     9    10    1
    15     9    29    1
    16     9    30    1
    17    10    11    1
    18    10    12    1
    19    10    14    1
    20    12    13    1
    21    12    31    1
    22    12    32    1
    23    13    33    1
    24    14    15    1
    25    14    19    1
    26    14    16    1
    27    16    17    1
    28    16    34    1
    29    16    35    1
    30    17    18    1
    31    17    36    1
    32    17    37    1
    33    18    19    1
    34    19    38    1
    35    19    39    1
    36    20    21   ar
    37    20    40    1
    38    21    22    1
    39    22    23    1
    40    23    24    1
    41    23    25    1
    42    23    41    1
@<TRIPOS>SUBSTRUCTURE
     1 ZINC000281092425        1 TEMP              0 ****  ****    0 ROOT


##########                                Name:    ZINC000540473851
##########                DOCK_Rotatable_Bonds:                   5
##########                         Heavy_Atoms:                  29
##########                    Molecular_Weight:             411.503
##########                DOCK_Rotatable_Bonds:                   5
##########                       Formal_Charge:           0.0200001
##########                     HBond_Acceptors:                   8
##########                        HBond_Donors:                   0
##########                         Heavy_Atoms:                  29
##########                          Grid_Score:          -31.016201
##########                     Grid_vdw_energy:          -28.600851
##########                      Grid_es_energy:           -2.415349
##########           Internal_energy_repulsive:           24.668730

@<TRIPOS>MOLECULE
ZINC000540473851
 51 54 1 0 0
SMALL
USER_CHARGES


@<TRIPOS>ATOM
      1 C1         -0.0890    6.3671   51.2824 C.3     1  ZINC000540473851   -0.0800
      2 C2         -1.3651    5.6186   51.5692 C.2     1  ZINC000540473851    0.1500
      3 C3         -2.2095    5.1795   50.5843 C.2     1  ZINC000540473851   -0.3100
      4 C4         -2.0206    5.3570   49.1394 C.2     1  ZINC000540473851    0.6000
      5 O5         -2.4981    6.3249   48.5778 O.2     1  ZINC000540473851   -0.5100
      6 N6         -1.3181    4.4477   48.4350 N.am    1  ZINC000540473851   -0.6100
      7 C7         -0.7375    3.2675   49.0930 C.3     1  ZINC000540473851    0.1000
      8 C8         -1.1588    2.0182   48.3120 C.3     1  ZINC000540473851    0.0400
      9 N9         -0.7952    2.1827   46.8982 N.3     1  ZINC000540473851   -0.5300
     10 C10        -1.0250    0.9411   46.1475 C.3     1  ZINC000540473851    0.1200
     11 H11        -2.0079    0.9773   45.6775 H       1  ZINC000540473851    0.0500
     12 C12        -0.9603   -0.2520   47.1031 C.3     1  ZINC000540473851   -0.1400
     13 C13         0.0342    0.7925   45.0860 C.ar    1  ZINC000540473851   -0.0500
     14 C14        -0.3286    0.5063   43.7833 C.ar    1  ZINC000540473851   -0.1000
     15 C15         0.6422    0.3697   42.8083 C.ar    1  ZINC000540473851   -0.0900
     16 C16         1.9764    0.5191   43.1352 C.ar    1  ZINC000540473851   -0.1500
     17 C17         2.3410    0.8063   44.4399 C.ar    1  ZINC000540473851    0.1000
     18 F18         3.6452    0.9527   44.7606 F       1  ZINC000540473851   -0.1400
     19 C19         1.3679    0.9482   45.4143 C.ar    1  ZINC000540473851   -0.1500
     20 C20        -1.5183    3.3074   46.2895 C.3     1  ZINC000540473851    0.0400
     21 C21        -1.1170    4.6063   46.9866 C.3     1  ZINC000540473851    0.1200
     22 S22        -3.5630    4.3630   51.3628 S.3     1  ZINC000540473851    0.2800
     23 C23        -2.8854    4.6796   52.8997 C.2     1  ZINC000540473851    0.0800
     24 C24        -3.4881    4.2705   54.1875 C.ar    1  ZINC000540473851    0.3800
     25 N25        -3.0017    4.7679   55.3174 N.ar    1  ZINC000540473851   -0.5100
     26 C26        -3.5171    4.4230   56.4841 C.ar    1  ZINC000540473851    0.1600
     27 C27        -4.5786    3.5301   56.5180 C.ar    1  ZINC000540473851   -0.2100
     28 C28        -5.0629    3.0293   55.3180 C.ar    1  ZINC000540473851    0.1500
     29 N29        -4.5057    3.4190   54.1851 N.ar    1  ZINC000540473851   -0.4700
     30 N30        -1.7612    5.3263   52.7783 N.2     1  ZINC000540473851   -0.4300
     31 H31         0.7302    5.6575   51.1659 H       1  ZINC000540473851    0.0900
     32 H32        -0.2040    6.9430   50.3641 H       1  ZINC000540473851    0.0800
     33 H33         0.1300    7.0423   52.1096 H       1  ZINC000540473851    0.0800
     34 H34         0.3495    3.3478   49.0965 H       1  ZINC000540473851    0.0900
     35 H35        -1.1059    3.2007   50.1167 H       1  ZINC000540473851    0.0900
     36 H36        -0.6487    1.1452   48.7194 H       1  ZINC000540473851    0.1000
     37 H37        -2.2370    1.8825   48.3968 H       1  ZINC000540473851    0.0400
     38 H38         0.0225   -0.2881   47.5731 H       1  ZINC000540473851    0.0700
     39 H39        -1.7265   -0.1445   47.8710 H       1  ZINC000540473851    0.0600
     40 H40        -1.1309   -1.1733   46.5462 H       1  ZINC000540473851    0.0600
     41 H41        -1.3712    0.3890   43.5269 H       1  ZINC000540473851    0.1400
     42 H42         0.3575    0.1456   41.7908 H       1  ZINC000540473851    0.1300
     43 H43         2.7345    0.4117   42.3735 H       1  ZINC000540473851    0.1300
     44 H44         1.6510    1.1725   46.4320 H       1  ZINC000540473851    0.1300
     45 H45        -1.2689    3.3695   45.2302 H       1  ZINC000540473851    0.1000
     46 H46        -2.5915    3.1537   46.4026 H       1  ZINC000540473851    0.0400
     47 H47        -1.7335    5.4257   46.6173 H       1  ZINC000540473851    0.1000
     48 H48        -0.0659    4.8177   46.7900 H       1  ZINC000540473851    0.0800
     49 H49        -3.1167    4.8308   57.4005 H       1  ZINC000540473851    0.1800
     50 H50        -5.0183    3.2312   57.4580 H       1  ZINC000540473851    0.1600
     51 H51        -5.8880    2.3326   55.3099 H       1  ZINC000540473851    0.1800
@<TRIPOS>BOND
     1     1     2    1
     2     1    31    1
     3     1    32    1
     4     1    33    1
     5     2    30    1
     6     2     3    2
     7     3     4    1
     8     3    22    1
     9     4     5    2
    10     4     6   am
    11     6    21    1
    12     6     7    1
    13     7     8    1
    14     7    34    1
    15     7    35    1
    16     8     9    1
    17     8    36    1
    18     8    37    1
    19     9    10    1
    20     9    20    1
    21    10    11    1
    22    10    12    1
    23    10    13    1
    24    12    38    1
    25    12    39    1
    26    12    40    1
    27    13    19   ar
    28    13    14   ar
    29    14    15   ar
    30    14    41    1
    31    15    16   ar
    32    15    42    1
    33    16    17   ar
    34    16    43    1
    35    17    18    1
    36    17    19   ar
    37    19    44    1
    38    20    21    1
    39    20    45    1
    40    20    46    1
    41    21    47    1
    42    21    48    1
    43    22    23    1
    44    23    24    1
    45    23    30    2
    46    24    29   ar
    47    24    25   ar
    48    25    26   ar
    49    26    27   ar
    50    26    49    1
    51    27    28   ar
    52    27    50    1
    53    28    29   ar
    54    28    51    1
@<TRIPOS>SUBSTRUCTURE
     1 ZINC000540473851        1 TEMP              0 ****  ****    0 ROOT


##########                                Name:    ZINC001004075025
##########                DOCK_Rotatable_Bonds:                   8
##########                         Heavy_Atoms:                  25
##########                    Molecular_Weight:              349.43
##########                DOCK_Rotatable_Bonds:                   8
##########                       Formal_Charge:         -0.00999999
##########                     HBond_Acceptors:                   7
##########                        HBond_Donors:                   1
##########                         Heavy_Atoms:                  25
##########                          Grid_Score:          -30.981236
##########                     Grid_vdw_energy:          -30.287237
##########                      Grid_es_energy:           -0.693999
##########           Internal_energy_repulsive:           11.942472

@<TRIPOS>MOLECULE
ZINC001004075025
 52 54 1 0 0
SMALL
USER_CHARGES


@<TRIPOS>ATOM
      1 C1         -9.4515    0.2890   52.0558 C.3     1  ZINC001004075025   -0.1500
      2 C2         -7.9527    0.5337   52.2422 C.3     1  ZINC001004075025   -0.1200
      3 C3         -7.7394    1.8668   52.9620 C.3     1  ZINC001004075025    0.0800
      4 H4         -8.1612    2.6839   52.3768 H       1  ZINC001004075025    0.0700
      5 C5         -8.3831    1.8263   54.3708 C.3     1  ZINC001004075025   -0.1500
      6 C6         -7.5411    2.9013   55.1107 C.3     1  ZINC001004075025   -0.1400
      7 C7         -6.1508    2.7328   54.4611 C.3     1  ZINC001004075025    0.0700
      8 H8         -5.5170    2.1164   55.0985 H       1  ZINC001004075025    0.1100
      9 C9         -5.5135    4.0835   54.2597 C.2     1  ZINC001004075025    0.5300
     10 O10        -5.8522    5.0226   54.9482 O.2     1  ZINC001004075025   -0.5200
     11 N11        -4.5672    4.2479   53.3141 N.am    1  ZINC001004075025   -0.6500
     12 C12        -3.7335    5.3596   52.8325 C.3     1  ZINC001004075025    0.1100
     13 C13        -3.6791    4.6566   51.4690 C.3     1  ZINC001004075025   -0.1400
     14 C14        -2.3096    4.7119   50.7890 C.3     1  ZINC001004075025    0.1300
     15 N15        -2.3804    4.0333   49.4926 N.am    1  ZINC001004075025   -0.7200
     16 C16        -1.2903    3.4171   48.9940 C.2     1  ZINC001004075025    0.6000
     17 O17        -0.2484    3.4232   49.6211 O.2     1  ZINC001004075025   -0.5300
     18 C18        -1.3612    2.7358   47.6889 C.2     1  ZINC001004075025   -0.2700
     19 C19        -1.1073    1.4181   47.3959 C.2     1  ZINC001004075025    0.0700
     20 C20        -0.6877    0.3421   48.3640 C.3     1  ZINC001004075025   -0.0300
     21 C21        -1.1800   -1.0165   47.8612 C.3     1  ZINC001004075025   -0.1500
     22 C22         0.8382    0.3224   48.4748 C.3     1  ZINC001004075025   -0.1500
     23 O23        -1.3060    1.2801   46.0831 O.3     1  ZINC001004075025    0.1000
     24 N24        -1.6389    2.3065   45.5431 N.2     1  ZINC001004075025   -0.3500
     25 C25        -1.7274    3.2977   46.3797 C.2     1  ZINC001004075025    0.0200
     26 C26        -3.9092    3.3931   52.3146 C.3     1  ZINC001004075025    0.1100
     27 O27        -6.3394    2.0903   53.1933 O.3     1  ZINC001004075025   -0.3400
     28 H28        -9.6036   -0.6607   51.5429 H       1  ZINC001004075025    0.0600
     29 H29        -9.9385    0.2578   53.0304 H       1  ZINC001004075025    0.0500
     30 H30        -9.8802    1.0957   51.4611 H       1  ZINC001004075025    0.0600
     31 H31        -7.5241   -0.2730   52.8368 H       1  ZINC001004075025    0.0800
     32 H32        -7.4657    0.5650   51.2675 H       1  ZINC001004075025    0.0700
     33 H33        -9.4347    2.1102   54.3306 H       1  ZINC001004075025    0.0900
     34 H34        -8.2601    0.8459   54.8308 H       1  ZINC001004075025    0.0900
     35 H35        -7.9375    3.8997   54.9255 H       1  ZINC001004075025    0.0800
     36 H36        -7.4977    2.6922   56.1795 H       1  ZINC001004075025    0.0900
     37 H37        -4.2568    6.3154   52.8075 H       1  ZINC001004075025    0.0900
     38 H38        -2.7645    5.4218   53.3278 H       1  ZINC001004075025    0.0900
     39 H39        -4.5022    4.9116   50.8016 H       1  ZINC001004075025    0.1100
     40 H40        -2.0200    5.7520   50.6393 H       1  ZINC001004075025    0.0800
     41 H41        -1.5709    4.2161   51.4187 H       1  ZINC001004075025    0.0800
     42 H42        -3.2120    4.0274   48.9930 H       1  ZINC001004075025    0.4000
     43 H43        -1.1204    0.5456   49.3435 H       1  ZINC001004075025    0.1300
     44 H44        -0.7472   -1.2201   46.8819 H       1  ZINC001004075025    0.0600
     45 H45        -0.8765   -1.7948   48.5615 H       1  ZINC001004075025    0.0700
     46 H46        -2.2671   -1.0026   47.7824 H       1  ZINC001004075025    0.0600
     47 H47         1.2710    0.1188   47.4953 H       1  ZINC001004075025    0.0600
     48 H48         1.1890    1.2903   48.8330 H       1  ZINC001004075025    0.0600
     49 H49         1.1417   -0.4558   49.1750 H       1  ZINC001004075025    0.0700
     50 H50        -2.0043    4.3181   46.1592 H       1  ZINC001004075025    0.2000
     51 H51        -2.9865    2.9348   52.6702 H       1  ZINC001004075025    0.0900
     52 H52        -4.5843    2.6757   51.8480 H       1  ZINC001004075025    0.0800
@<TRIPOS>BOND
     1     1     2    1
     2     1    28    1
     3     1    29    1
     4     1    30    1
     5     2     3    1
     6     2    31    1
     7     2    32    1
     8     3     4    1
     9     3    27    1
    10     3     5    1
    11     5     6    1
    12     5    33    1
    13     5    34    1
    14     6     7    1
    15     6    35    1
    16     6    36    1
    17     7     8    1
    18     7     9    1
    19     7    27    1
    20     9    10    2
    21     9    11   am
    22    11    26    1
    23    11    12    1
    24    12    13    1
    25    12    37    1
    26    12    38    1
    27    13    14    1
    28    13    26    1
    29    13    39    1
    30    14    15    1
    31    14    40    1
    32    14    41    1
    33    15    16   am
    34    15    42    1
    35    16    17    2
    36    16    18    1
    37    18    25    1
    38    18    19    2
    39    19    20    1
    40    19    23    1
    41    20    21    1
    42    20    22    1
    43    20    43    1
    44    21    44    1
    45    21    45    1
    46    21    46    1
    47    22    47    1
    48    22    48    1
    49    22    49    1
    50    23    24    1
    51    24    25    2
    52    25    50    1
    53    26    51    1
    54    26    52    1
@<TRIPOS>SUBSTRUCTURE
     1 ZINC001004075025        1 TEMP              0 ****  ****    0 ROOT


##########                                Name:    ZINC001456096501
##########                DOCK_Rotatable_Bonds:                   7
##########                         Heavy_Atoms:                  24
##########                    Molecular_Weight:             333.431
##########                DOCK_Rotatable_Bonds:                   7
##########                       Formal_Charge:          -0.0200003
##########                     HBond_Acceptors:                   6
##########                        HBond_Donors:                   0
##########                         Heavy_Atoms:                  24
##########                          Grid_Score:          -30.968596
##########                     Grid_vdw_energy:          -30.668970
##########                      Grid_es_energy:           -0.299626
##########           Internal_energy_repulsive:          128.356766

@<TRIPOS>MOLECULE
ZINC001456096501
 51 52 1 0 0
SMALL
USER_CHARGES


@<TRIPOS>ATOM
      1 C1         -0.1636   -1.8462   48.5162 C.3     1  ZINC001456096501    0.0400
      2 O2         -1.2181   -0.8967   48.3476 O.3     1  ZINC001456096501   -0.2900
      3 C3         -1.3002   -0.2758   47.1468 C.ar    1  ZINC001456096501    0.3700
      4 N4         -0.9270   -0.9135   46.0505 N.ar    1  ZINC001456096501   -0.5400
      5 C5         -0.9907   -0.3469   44.8609 C.ar    1  ZINC001456096501    0.1600
      6 C6         -1.4536    0.9474   44.7080 C.ar    1  ZINC001456096501   -0.2200
      7 C7         -1.8575    1.6618   45.8222 C.ar    1  ZINC001456096501   -0.0200
      8 C8         -1.7861    1.0385   47.0731 C.ar    1  ZINC001456096501   -0.2000
      9 C9         -2.2044    1.7540   48.2937 C.2     1  ZINC001456096501    0.5900
     10 O10        -3.3680    1.7277   48.6452 O.2     1  ZINC001456096501   -0.5100
     11 N11        -1.2965    2.4367   49.0191 N.am    1  ZINC001456096501   -0.6200
     12 C12         0.1363    2.5511   48.7102 C.3     1  ZINC001456096501    0.1000
     13 C13         0.7790    3.4014   49.8262 C.3     1  ZINC001456096501   -0.1200
     14 C14        -0.2209    3.2448   51.0021 C.3     1  ZINC001456096501   -0.1200
     15 H15        -0.0405    2.3185   51.5476 H       1  ZINC001456096501    0.0900
     16 C16        -0.1576    4.4518   51.9403 C.3     1  ZINC001456096501    0.1200
     17 N17        -1.2517    4.3732   52.9114 N.am    1  ZINC001456096501   -0.6200
     18 C18        -2.5359    5.0158   52.6216 C.3     1  ZINC001456096501    0.0600
     19 C19        -1.0768    3.7096   54.0714 C.2     1  ZINC001456096501    0.5200
     20 O20        -0.0137    3.1777   54.3114 O.2     1  ZINC001456096501   -0.5300
     21 C21        -2.2022    3.6289   55.0703 C.3     1  ZINC001456096501   -0.0800
     22 C22        -2.3889    4.9921   55.7396 C.3     1  ZINC001456096501   -0.1300
     23 C23        -3.4938    3.2320   54.3526 C.3     1  ZINC001456096501   -0.1500
     24 C24        -1.8667    2.5807   56.1332 C.3     1  ZINC001456096501   -0.1700
     25 C25        -1.5770    3.1977   50.2502 C.3     1  ZINC001456096501    0.1200
     26 H26        -0.2716   -2.6436   47.7809 H       1  ZINC001456096501    0.0600
     27 H27         0.7972   -1.3508   48.3764 H       1  ZINC001456096501    0.0600
     28 H28        -0.2120   -2.2685   49.5199 H       1  ZINC001456096501    0.1000
     29 H29        -0.6753   -0.9035   43.9909 H       1  ZINC001456096501    0.1700
     30 H30        -1.4991    1.3970   43.7271 H       1  ZINC001456096501    0.1500
     31 H31        -2.2223    2.6740   45.7283 H       1  ZINC001456096501    0.1500
     32 H32         0.5914    1.5608   48.6900 H       1  ZINC001456096501    0.0700
     33 H33         0.2697    3.0424   47.7464 H       1  ZINC001456096501    0.0700
     34 H34         1.7579    3.0059   50.0971 H       1  ZINC001456096501    0.0900
     35 H35         0.8547    4.4450   49.5206 H       1  ZINC001456096501    0.0800
     36 H36         0.7966    4.4526   52.4672 H       1  ZINC001456096501    0.0800
     37 H37        -0.2527    5.3690   51.3592 H       1  ZINC001456096501    0.0900
     38 H38        -3.2051    4.2949   52.1518 H       1  ZINC001456096501    0.0600
     39 H39        -2.9811    5.3734   53.5501 H       1  ZINC001456096501    0.0900
     40 H40        -2.3771    5.8572   51.9471 H       1  ZINC001456096501    0.0700
     41 H41        -2.6280    5.7388   54.9825 H       1  ZINC001456096501    0.0600
     42 H42        -3.2029    4.9337   56.4621 H       1  ZINC001456096501    0.0600
     43 H43        -1.4687    5.2748   56.2509 H       1  ZINC001456096501    0.0600
     44 H44        -3.3216    2.3283   53.7680 H       1  ZINC001456096501    0.0700
     45 H45        -4.2759    3.0453   55.0885 H       1  ZINC001456096501    0.0700
     46 H46        -3.8041    4.0398   53.6898 H       1  ZINC001456096501    0.0600
     47 H47        -0.9465    2.8634   56.6445 H       1  ZINC001456096501    0.0600
     48 H48        -2.6807    2.5223   56.8557 H       1  ZINC001456096501    0.0700
     49 H49        -1.7337    1.6095   55.6563 H       1  ZINC001456096501    0.0800
     50 H50        -1.9132    4.2065   50.0106 H       1  ZINC001456096501    0.0800
     51 H51        -2.3256    2.6799   50.8499 H       1  ZINC001456096501    0.0700
@<TRIPOS>BOND
     1     1     2    1
     2     1    26    1
     3     1    27    1
     4     1    28    1
     5     2     3    1
     6     3     8   ar
     7     3     4   ar
     8     4     5   ar
     9     5     6   ar
    10     5    29    1
    11     6     7   ar
    12     6    30    1
    13     7     8   ar
    14     7    31    1
    15     8     9    1
    16     9    10    2
    17     9    11   am
    18    11    25    1
    19    11    12    1
    20    12    13    1
    21    12    32    1
    22    12    33    1
    23    13    14    1
    24    13    34    1
    25    13    35    1
    26    14    15    1
    27    14    16    1
    28    14    25    1
    29    16    17    1
    30    16    36    1
    31    16    37    1
    32    17    18    1
    33    17    19   am
    34    18    38    1
    35    18    39    1
    36    18    40    1
    37    19    20    2
    38    19    21    1
    39    21    22    1
    40    21    23    1
    41    21    24    1
    42    22    41    1
    43    22    42    1
    44    22    43    1
    45    23    44    1
    46    23    45    1
    47    23    46    1
    48    24    47    1
    49    24    48    1
    50    24    49    1
    51    25    50    1
    52    25    51    1
@<TRIPOS>SUBSTRUCTURE
     1 ZINC001456096501        1 TEMP              0 ****  ****    0 ROOT


##########                                Name:    ZINC001079355651
##########                DOCK_Rotatable_Bonds:                   5
##########                         Heavy_Atoms:                  25
##########                    Molecular_Weight:             353.851
##########                DOCK_Rotatable_Bonds:                   5
##########                       Formal_Charge:           0.0199997
##########                     HBond_Acceptors:                   5
##########                        HBond_Donors:                   1
##########                         Heavy_Atoms:                  25
##########                          Grid_Score:          -30.962723
##########                     Grid_vdw_energy:          -31.255587
##########                      Grid_es_energy:            0.292864
##########           Internal_energy_repulsive:            4.487989

@<TRIPOS>MOLECULE
ZINC001079355651
 45 47 1 0 0
SMALL
USER_CHARGES


@<TRIPOS>ATOM
      1 C1         -5.0129    3.9180   56.2417 C.3     1  ZINC001079355651   -0.1500
      2 C2         -4.6946    3.0485   55.0236 C.3     1  ZINC001079355651   -0.1000
      3 H3         -4.8735    1.9979   55.2521 H       1  ZINC001079355651    0.0900
      4 C4         -3.2303    3.2594   54.5823 C.3     1  ZINC001079355651    0.0300
      5 N5         -3.2750    3.2046   53.0984 N.3     1  ZINC001079355651   -0.5100
      6 C6         -2.1001    3.8628   52.5116 C.3     1  ZINC001079355651    0.1600
      7 C7         -1.9367    3.4226   51.1165 C.1     1  ZINC001079355651   -0.1400
      8 C8         -1.8065    3.0716   50.0039 C.1     1  ZINC001079355651   -0.1300
      9 C9         -1.6476    2.6435   48.6467 C.ar    1  ZINC001079355651    0.0300
     10 C10        -1.7210    1.2873   48.3269 C.ar    1  ZINC001079355651   -0.0900
     11 C11        -1.5670    0.8804   47.0172 C.ar    1  ZINC001079355651   -0.1000
     12 C12        -1.3404    1.8135   46.0219 C.ar    1  ZINC001079355651   -0.1000
     13 C13        -1.2658    3.1610   46.3321 C.ar    1  ZINC001079355651   -0.0300
     14 Cl14       -0.9804    4.3248   45.0760 Cl      1  ZINC001079355651   -0.0600
     15 C15        -1.4244    3.5812   47.6377 C.ar    1  ZINC001079355651   -0.0900
     16 C16        -4.5231    3.9282   52.7439 C.3     1  ZINC001079355651    0.0200
     17 C17        -5.5469    3.4867   53.8150 C.3     1  ZINC001079355651    0.1500
     18 H18        -6.1916    4.3217   54.0894 H       1  ZINC001079355651    0.1000
     19 N19        -6.3504    2.3663   53.3196 N.am    1  ZINC001079355651   -0.7100
     20 C20        -7.6294    2.2250   53.7207 C.2     1  ZINC001079355651    0.5600
     21 O21        -8.1164    3.0277   54.4921 O.2     1  ZINC001079355651   -0.5300
     22 C22        -8.4413    1.0909   53.2212 C.ar    1  ZINC001079355651   -0.0900
     23 C23        -7.9168    0.1850   52.2944 C.ar    1  ZINC001079355651   -0.1400
     24 C24        -8.7090   -0.8581   51.8553 C.ar    1  ZINC001079355651    0.1000
     25 N25        -9.9419   -1.0046   52.2981 N.ar    1  ZINC001079355651   -0.4700
     26 C26       -10.4747   -0.1736   53.1715 C.ar    1  ZINC001079355651    0.1000
     27 C27        -9.7514    0.8936   53.6678 C.ar    1  ZINC001079355651   -0.1200
     28 H28        -6.0622    3.7966   56.5105 H       1  ZINC001079355651    0.0600
     29 H29        -4.3856    3.6135   57.0793 H       1  ZINC001079355651    0.0700
     30 H30        -4.8176    4.9634   56.0028 H       1  ZINC001079355651    0.0600
     31 H31        -2.8689    4.2321   54.9161 H       1  ZINC001079355651    0.0600
     32 H32        -2.5970    2.4629   54.9732 H       1  ZINC001079355651    0.0900
     33 H33        -2.2383    4.9437   52.5378 H       1  ZINC001079355651    0.0700
     34 H34        -1.2110    3.5963   53.0832 H       1  ZINC001079355651    0.1100
     35 H35        -1.8975    0.5573   49.1029 H       1  ZINC001079355651    0.1300
     36 H36        -1.6233   -0.1691   46.7690 H       1  ZINC001079355651    0.1400
     37 H37        -1.2205    1.4898   44.9985 H       1  ZINC001079355651    0.1400
     38 H38        -1.3663    4.6323   47.8790 H       1  ZINC001079355651    0.1400
     39 H39        -4.3640    5.0056   52.7900 H       1  ZINC001079355651    0.0600
     40 H40        -4.8632    3.6353   51.7505 H       1  ZINC001079355651    0.0900
     41 H41        -5.9620    1.7262   52.7029 H       1  ZINC001079355651    0.4000
     42 H42        -6.9076    0.2991   51.9270 H       1  ZINC001079355651    0.1400
     43 H43        -8.3129   -1.5629   51.1392 H       1  ZINC001079355651    0.1600
     44 H44       -11.4891   -0.3316   53.5068 H       1  ZINC001079355651    0.1700
     45 H45       -10.1945    1.5707   54.3833 H       1  ZINC001079355651    0.1500
@<TRIPOS>BOND
     1     1     2    1
     2     1    28    1
     3     1    29    1
     4     1    30    1
     5     2     3    1
     6     2    17    1
     7     2     4    1
     8     4     5    1
     9     4    31    1
    10     4    32    1
    11     5     6    1
    12     5    16    1
    13     6     7    1
    14     6    33    1
    15     6    34    1
    16     7     8    3
    17     8     9    1
    18     9    15   ar
    19     9    10   ar
    20    10    11   ar
    21    10    35    1
    22    11    12   ar
    23    11    36    1
    24    12    13   ar
    25    12    37    1
    26    13    14    1
    27    13    15   ar
    28    15    38    1
    29    16    17    1
    30    16    39    1
    31    16    40    1
    32    17    18    1
    33    17    19    1
    34    19    20   am
    35    19    41    1
    36    20    21    2
    37    20    22    1
    38    22    27   ar
    39    22    23   ar
    40    23    24   ar
    41    23    42    1
    42    24    25   ar
    43    24    43    1
    44    25    26   ar
    45    26    27   ar
    46    26    44    1
    47    27    45    1
@<TRIPOS>SUBSTRUCTURE
     1 ZINC001079355651        1 TEMP              0 ****  ****    0 ROOT


##########                                Name:    ZINC000000992968
##########                DOCK_Rotatable_Bonds:                   8
##########                         Heavy_Atoms:                  27
##########                    Molecular_Weight:             384.772
##########                DOCK_Rotatable_Bonds:                   8
##########                       Formal_Charge:           0.0199999
##########                     HBond_Acceptors:                   7
##########                        HBond_Donors:                   0
##########                         Heavy_Atoms:                  27
##########                          Grid_Score:          -30.951284
##########                     Grid_vdw_energy:          -30.405046
##########                      Grid_es_energy:           -0.546237
##########           Internal_energy_repulsive:           16.720764

@<TRIPOS>MOLECULE
ZINC000000992968
 40 42 1 0 0
SMALL
USER_CHARGES


@<TRIPOS>ATOM
      1 O1         -6.5347    1.8396   57.6651 O.2     1  ZINC000000992968   -0.4600
      2 C2         -5.5564    2.3542   57.1575 C.2     1  ZINC000000992968    0.5600
      3 O3         -4.6254    1.5852   56.5553 O.3     1  ZINC000000992968   -0.2900
      4 C4         -3.8099    2.1701   55.6418 C.ar    1  ZINC000000992968    0.1200
      5 C5         -2.4753    2.4049   55.9541 C.ar    1  ZINC000000992968   -0.1300
      6 C6         -1.6443    2.9981   55.0315 C.ar    1  ZINC000000992968   -0.0400
      7 C7         -2.1446    3.3651   53.7763 C.ar    1  ZINC000000992968   -0.1600
      8 C8         -1.2619    3.9982   52.7874 C.2     1  ZINC000000992968    0.4000
      9 O9         -0.0587    3.9600   52.9361 O.2     1  ZINC000000992968   -0.4200
     10 C10        -1.8512    4.6950   51.5881 C.3     1  ZINC000000992968    0.0200
     11 O11        -2.1558    3.7155   50.5605 O.3     1  ZINC000000992968   -0.3300
     12 C12        -1.8672    4.0534   49.2886 C.2     1  ZINC000000992968    0.5100
     13 O13        -1.6951    5.2194   48.9941 O.2     1  ZINC000000992968   -0.5000
     14 C14        -1.7599    3.0066   48.2528 C.ar    1  ZINC000000992968   -0.1300
     15 C15        -1.5597    3.3602   46.9165 C.ar    1  ZINC000000992968   -0.0500
     16 C16        -1.4599    2.3780   45.9540 C.ar    1  ZINC000000992968   -0.1200
     17 C17        -1.5581    1.0429   46.3100 C.ar    1  ZINC000000992968    0.0000
     18 Cl18       -1.4320   -0.1879   45.0923 Cl      1  ZINC000000992968   -0.0500
     19 C19        -1.7562    0.6858   47.6337 C.ar    1  ZINC000000992968   -0.1200
     20 C20        -1.8523    1.6585   48.6062 C.ar    1  ZINC000000992968   -0.0400
     21 C21        -3.4891    3.1261   53.4667 C.ar    1  ZINC000000992968   -0.0600
     22 C22        -4.3104    2.5274   54.3945 C.ar    1  ZINC000000992968   -0.1200
     23 C23        -5.3921    3.8090   57.1948 C.2     1  ZINC000000992968   -0.0700
     24 C24        -6.2510    4.6997   57.7748 C.2     1  ZINC000000992968   -0.0900
     25 C25        -5.7044    5.9762   57.5739 C.2     1  ZINC000000992968   -0.2300
     26 C26        -4.5506    5.8119   56.8890 C.2     1  ZINC000000992968    0.0200
     27 O27        -4.3630    4.5046   56.6676 O.3     1  ZINC000000992968   -0.1500
     28 H28        -2.0904    2.1215   56.9226 H       1  ZINC000000992968    0.1400
     29 H29        -0.6081    3.1806   55.2753 H       1  ZINC000000992968    0.1500
     30 H30        -2.7656    5.2110   51.8807 H       1  ZINC000000992968    0.1100
     31 H31        -1.1342    5.4183   51.1996 H       1  ZINC000000992968    0.1100
     32 H32        -1.4837    4.4008   46.6378 H       1  ZINC000000992968    0.1500
     33 H33        -1.3051    2.6501   44.9205 H       1  ZINC000000992968    0.1500
     34 H34        -1.8316   -0.3568   47.9050 H       1  ZINC000000992968    0.1500
     35 H35        -2.0064    1.3788   49.6379 H       1  ZINC000000992968    0.1500
     36 H36        -3.8799    3.4075   52.4999 H       1  ZINC000000992968    0.1400
     37 H37        -5.3474    2.3424   54.1567 H       1  ZINC000000992968    0.1400
     38 H38        -7.1720    4.4664   58.2883 H       1  ZINC000000992968    0.1700
     39 H39        -6.1262    6.9138   57.9044 H       1  ZINC000000992968    0.1700
     40 H40        -3.8873    6.6044   56.5754 H       1  ZINC000000992968    0.2200
@<TRIPOS>BOND
     1     1     2    2
     2     2     3    1
     3     2    23    1
     4     3     4    1
     5     4    22   ar
     6     4     5   ar
     7     5     6   ar
     8     5    28    1
     9     6     7   ar
    10     6    29    1
    11     7     8    1
    12     7    21   ar
    13     8     9    2
    14     8    10    1
    15    10    11    1
    16    10    30    1
    17    10    31    1
    18    11    12    1
    19    12    13    2
    20    12    14    1
    21    14    20   ar
    22    14    15   ar
    23    15    16   ar
    24    15    32    1
    25    16    17   ar
    26    16    33    1
    27    17    18    1
    28    17    19   ar
    29    19    20   ar
    30    19    34    1
    31    20    35    1
    32    21    22   ar
    33    21    36    1
    34    22    37    1
    35    23    27    1
    36    23    24    2
    37    24    25    1
    38    24    38    1
    39    25    26    2
    40    25    39    1
    41    26    27    1
    42    26    40    1
@<TRIPOS>SUBSTRUCTURE
     1 ZINC000000992968        1 TEMP              0 ****  ****    0 ROOT


##########                                Name:    ZINC000654672208
##########                DOCK_Rotatable_Bonds:                   5
##########                         Heavy_Atoms:                  25
##########                    Molecular_Weight:             365.497
##########                DOCK_Rotatable_Bonds:                   5
##########                       Formal_Charge:           0.0100001
##########                     HBond_Acceptors:                   7
##########                        HBond_Donors:                   1
##########                         Heavy_Atoms:                  25
##########                          Grid_Score:          -30.921471
##########                     Grid_vdw_energy:          -28.055271
##########                      Grid_es_energy:           -2.866199
##########           Internal_energy_repulsive:           15.230063

@<TRIPOS>MOLECULE
ZINC000654672208
 52 54 1 0 0
SMALL
USER_CHARGES


@<TRIPOS>ATOM
      1 C1         -5.5457    3.8280   57.5867 C.3     1  ZINC000654672208   -0.1100
      2 C2         -6.2588    2.8080   58.4365 C.ar    1  ZINC000654672208   -0.1300
      3 C3         -6.6519    1.5986   57.8959 C.ar    1  ZINC000654672208    0.1000
      4 N4         -7.2760    0.7009   58.6335 N.ar    1  ZINC000654672208   -0.4700
      5 C5         -7.5486    0.9169   59.9054 C.ar    1  ZINC000654672208    0.1200
      6 C6         -8.2639   -0.1422   60.7039 C.3     1  ZINC000654672208   -0.0900
      7 C7         -8.2532   -1.4605   59.9275 C.3     1  ZINC000654672208    0.1500
      8 N8         -9.2939   -1.4287   58.8969 N.am    1  ZINC000654672208   -0.7500
      9 C9        -10.3727   -2.2294   59.0036 C.2     1  ZINC000654672208    0.7100
     10 O10       -10.4822   -2.9783   59.9552 O.2     1  ZINC000654672208   -0.5800
     11 N11       -11.3301   -2.2002   58.0555 N.am    1  ZINC000654672208   -0.6300
     12 C12       -11.2113   -1.3006   56.9000 C.3     1  ZINC000654672208    0.1300
     13 C13       -12.4840   -0.4536   56.8030 C.3     1  ZINC000654672208   -0.1400
     14 C14       -13.7041   -1.3756   56.7582 C.3     1  ZINC000654672208   -0.1100
     15 C15       -13.7717   -2.1976   58.0509 C.3     1  ZINC000654672208   -0.0600
     16 C16       -15.0036   -3.1075   58.0034 C.3     1  ZINC000654672208   -0.1200
     17 C17       -15.4988   -3.3502   59.4523 C.3     1  ZINC000654672208   -0.5800
     18 S18       -15.3366   -1.6657   60.1703 S.o2    1  ZINC000654672208    2.3800
     19 O19       -16.4108   -0.8506   59.7219 O.2     1  ZINC000654672208   -0.9300
     20 O20       -15.0488   -1.7645   61.5583 O.2     1  ZINC000654672208   -0.9300
     21 C21       -13.8122   -1.2349   59.2501 C.3     1  ZINC000654672208   -0.5800
     22 C22       -12.5084   -3.0715   58.1554 C.3     1  ZINC000654672208    0.1200
     23 C23        -7.1856    2.1032   60.5147 C.ar    1  ZINC000654672208   -0.1200
     24 C24        -7.5007    2.3416   61.9690 C.3     1  ZINC000654672208   -0.1200
     25 C25        -6.5236    3.0690   59.7724 C.ar    1  ZINC000654672208   -0.0800
     26 H26        -4.4703    3.6590   57.6418 H       1  ZINC000654672208    0.0700
     27 H27        -5.8758    3.7335   56.5521 H       1  ZINC000654672208    0.0700
     28 H28        -5.7754    4.8292   57.9513 H       1  ZINC000654672208    0.0700
     29 H29        -6.4461    1.3862   56.8572 H       1  ZINC000654672208    0.1600
     30 H30        -7.7587   -0.2795   61.6600 H       1  ZINC000654672208    0.0900
     31 H31        -9.2940    0.1681   60.8786 H       1  ZINC000654672208    0.0900
     32 H32        -7.2797   -1.5971   59.4567 H       1  ZINC000654672208    0.0700
     33 H33        -8.4449   -2.2869   60.6120 H       1  ZINC000654672208    0.0700
     34 H34        -9.2065   -0.8314   58.1376 H       1  ZINC000654672208    0.3900
     35 H35       -10.3475   -0.6489   57.0314 H       1  ZINC000654672208    0.1000
     36 H36       -11.0932   -1.8885   55.9897 H       1  ZINC000654672208    0.0700
     37 H37       -12.5534    0.1995   57.6729 H       1  ZINC000654672208    0.0700
     38 H38       -12.4509    0.1502   55.8961 H       1  ZINC000654672208    0.0800
     39 H39       -14.6092   -0.7762   56.6612 H       1  ZINC000654672208    0.0800
     40 H40       -13.6203   -2.0478   55.9043 H       1  ZINC000654672208    0.0800
     41 H41       -15.7913   -2.6278   57.4224 H       1  ZINC000654672208    0.1000
     42 H42       -14.7388   -4.0590   57.5424 H       1  ZINC000654672208    0.1000
     43 H43       -16.5370   -3.6821   59.4615 H       1  ZINC000654672208    0.1400
     44 H44       -14.8570   -4.0615   59.9721 H       1  ZINC000654672208    0.1400
     45 H45       -12.9362   -1.3819   59.8816 H       1  ZINC000654672208    0.1400
     46 H46       -13.8597   -0.2026   58.9038 H       1  ZINC000654672208    0.1400
     47 H47       -12.5005   -3.8010   57.3456 H       1  ZINC000654672208    0.0800
     48 H48       -12.4993   -3.5876   59.1154 H       1  ZINC000654672208    0.0800
     49 H49        -6.6727    1.9872   62.5830 H       1  ZINC000654672208    0.0800
     50 H50        -7.6482    3.4082   62.1387 H       1  ZINC000654672208    0.0700
     51 H51        -8.4089    1.8020   62.2372 H       1  ZINC000654672208    0.0700
     52 H52        -6.2278    4.0053   60.2221 H       1  ZINC000654672208    0.1300
@<TRIPOS>BOND
     1     1     2    1
     2     1    26    1
     3     1    27    1
     4     1    28    1
     5     2    25   ar
     6     2     3   ar
     7     3     4   ar
     8     3    29    1
     9     4     5   ar
    10     5     6    1
    11     5    23   ar
    12     6     7    1
    13     6    30    1
    14     6    31    1
    15     7     8    1
    16     7    32    1
    17     7    33    1
    18     8     9   am
    19     8    34    1
    20     9    10    2
    21     9    11   am
    22    11    22    1
    23    11    12    1
    24    12    13    1
    25    12    35    1
    26    12    36    1
    27    13    14    1
    28    13    37    1
    29    13    38    1
    30    14    15    1
    31    14    39    1
    32    14    40    1
    33    15    21    1
    34    15    16    1
    35    15    22    1
    36    16    17    1
    37    16    41    1
    38    16    42    1
    39    17    18    1
    40    17    43    1
    41    17    44    1
    42    18    19    2
    43    18    20    2
    44    18    21    1
    45    21    45    1
    46    21    46    1
    47    22    47    1
    48    22    48    1
    49    23    24    1
    50    23    25   ar
    51    24    49    1
    52    24    50    1
    53    24    51    1
    54    25    52    1
@<TRIPOS>SUBSTRUCTURE
     1 ZINC000654672208        1 TEMP              0 ****  ****    0 ROOT


##########                                Name:    ZINC000533037883
##########                DOCK_Rotatable_Bonds:                   7
##########                         Heavy_Atoms:                  27
##########                    Molecular_Weight:             368.479
##########                DOCK_Rotatable_Bonds:                   7
##########                       Formal_Charge:          0.00999947
##########                     HBond_Acceptors:                   6
##########                        HBond_Donors:                   1
##########                         Heavy_Atoms:                  27
##########                          Grid_Score:          -30.920189
##########                     Grid_vdw_energy:          -30.721455
##########                      Grid_es_energy:           -0.198734
##########           Internal_energy_repulsive:           14.018126

@<TRIPOS>MOLECULE
ZINC000533037883
 55 58 1 0 0
SMALL
USER_CHARGES


@<TRIPOS>ATOM
      1 O1         -3.1066    5.4024   51.8111 O.2     1  ZINC000533037883   -0.5900
      2 C2         -3.1042    4.3448   51.2111 C.2     1  ZINC000533037883    0.7100
      3 N3         -3.7641    3.2829   51.7144 N.am    1  ZINC000533037883   -0.7500
      4 C4         -4.4792    3.4011   52.9876 C.3     1  ZINC000533037883    0.1400
      5 C5         -3.4808    3.3116   54.1434 C.3     1  ZINC000533037883   -0.0500
      6 C6         -4.1819    3.6312   55.4386 C.2     1  ZINC000533037883   -0.2300
      7 C7         -4.8737    2.7575   56.2060 C.2     1  ZINC000533037883    0.0600
      8 N8         -5.3454    3.4346   57.2773 N.pl3   1  ZINC000533037883   -0.3200
      9 C9         -6.1146    2.8981   58.3192 C.ar    1  ZINC000533037883    0.1600
     10 C10        -6.4415    3.6822   59.4174 C.ar    1  ZINC000533037883   -0.1400
     11 C11        -7.1995    3.1508   60.4424 C.ar    1  ZINC000533037883   -0.0900
     12 C12        -7.6323    1.8391   60.3760 C.ar    1  ZINC000533037883   -0.1300
     13 C13        -7.3082    1.0558   59.2836 C.ar    1  ZINC000533037883   -0.0900
     14 C14        -6.5558    1.5834   58.2525 C.ar    1  ZINC000533037883   -0.1200
     15 N15        -4.9285    4.7670   57.1618 N.2     1  ZINC000533037883   -0.2900
     16 C16        -4.2273    4.8827   56.0628 C.2     1  ZINC000533037883    0.0700
     17 N17        -2.4464    4.2361   50.0398 N.am    1  ZINC000533037883   -0.6300
     18 C18        -1.7225    5.3848   49.4784 C.3     1  ZINC000533037883    0.1100
     19 C19        -0.2787    4.9632   49.1873 C.3     1  ZINC000533037883   -0.1400
     20 C20        -0.2846    3.7241   48.2891 C.3     1  ZINC000533037883   -0.1100
     21 C21        -0.9878    2.5723   49.0108 C.3     1  ZINC000533037883   -0.0900
     22 H22        -0.4740    2.3629   49.9490 H       1  ZINC000533037883    0.0800
     23 C23        -0.9635    1.3244   48.1258 C.3     1  ZINC000533037883   -0.1200
     24 H24        -1.4436    1.5214   47.1673 H       1  ZINC000533037883    0.0900
     25 C25         0.4909    0.8196   47.9221 C.3     1  ZINC000533037883   -0.1500
     26 C26         0.2475   -0.6931   47.6906 C.3     1  ZINC000533037883    0.0500
     27 O27        -0.8426   -1.0351   48.5612 O.3     1  ZINC000533037883   -0.3900
     28 C28        -1.6328    0.1309   48.8405 C.3     1  ZINC000533037883    0.0500
     29 C29        -2.4345    2.9650   49.3030 C.3     1  ZINC000533037883    0.1300
     30 H30        -3.7655    2.4403   51.2338 H       1  ZINC000533037883    0.4000
     31 H31        -4.9954    4.3602   53.0267 H       1  ZINC000533037883    0.0700
     32 H32        -5.2064    2.5934   53.0722 H       1  ZINC000533037883    0.0700
     33 H33        -3.0704    2.3029   54.1918 H       1  ZINC000533037883    0.0800
     34 H34        -2.6730    4.0252   53.9818 H       1  ZINC000533037883    0.0800
     35 H35        -5.0229    1.7079   55.9996 H       1  ZINC000533037883    0.1800
     36 H36        -6.1033    4.7065   59.4702 H       1  ZINC000533037883    0.1300
     37 H37        -7.4542    3.7603   61.2970 H       1  ZINC000533037883    0.1300
     38 H38        -8.2243    1.4257   61.1791 H       1  ZINC000533037883    0.1300
     39 H39        -7.6476    0.0317   59.2344 H       1  ZINC000533037883    0.1300
     40 H40        -6.3032    0.9712   57.3994 H       1  ZINC000533037883    0.1400
     41 H41        -3.7680    5.7893   55.6976 H       1  ZINC000533037883    0.1900
     42 H42        -2.2036    5.7035   48.5537 H       1  ZINC000533037883    0.0700
     43 H43        -1.7260    6.2051   50.1961 H       1  ZINC000533037883    0.0800
     44 H44         0.2427    5.7762   48.6820 H       1  ZINC000533037883    0.0800
     45 H45         0.2285    4.7314   50.1237 H       1  ZINC000533037883    0.0700
     46 H46        -0.8136    3.9493   47.3631 H       1  ZINC000533037883    0.0700
     47 H47         0.7416    3.4367   48.0603 H       1  ZINC000533037883    0.0700
     48 H48         0.9485    1.2821   47.0477 H       1  ZINC000533037883    0.0800
     49 H49         1.0940    0.9884   48.8143 H       1  ZINC000533037883    0.0800
     50 H50        -0.0258   -0.8776   46.6517 H       1  ZINC000533037883    0.0600
     51 H51         1.1371   -1.2644   47.9559 H       1  ZINC000533037883    0.0900
     52 H52        -1.6566    0.3127   49.9150 H       1  ZINC000533037883    0.0700
     53 H53        -2.6464   -0.0110   48.4658 H       1  ZINC000533037883    0.0700
     54 H54        -2.9097    2.1889   49.9031 H       1  ZINC000533037883    0.1000
     55 H55        -2.9764    3.0878   48.3652 H       1  ZINC000533037883    0.0700
@<TRIPOS>BOND
     1     1     2    2
     2     2     3   am
     3     2    17   am
     4     3     4    1
     5     3    30    1
     6     4     5    1
     7     4    31    1
     8     4    32    1
     9     5     6    1
    10     5    33    1
    11     5    34    1
    12     6    16    1
    13     6     7    2
    14     7     8    1
    15     7    35    1
    16     8     9    1
    17     8    15    1
    18     9    14   ar
    19     9    10   ar
    20    10    11   ar
    21    10    36    1
    22    11    12   ar
    23    11    37    1
    24    12    13   ar
    25    12    38    1
    26    13    14   ar
    27    13    39    1
    28    14    40    1
    29    15    16    2
    30    16    41    1
    31    17    29    1
    32    17    18    1
    33    18    19    1
    34    18    42    1
    35    18    43    1
    36    19    20    1
    37    19    44    1
    38    19    45    1
    39    20    21    1
    40    20    46    1
    41    20    47    1
    42    21    22    1
    43    21    23    1
    44    21    29    1
    45    23    24    1
    46    23    28    1
    47    23    25    1
    48    25    26    1
    49    25    48    1
    50    25    49    1
    51    26    27    1
    52    26    50    1
    53    26    51    1
    54    27    28    1
    55    28    52    1
    56    28    53    1
    57    29    54    1
    58    29    55    1
@<TRIPOS>SUBSTRUCTURE
     1 ZINC000533037883        1 TEMP              0 ****  ****    0 ROOT


##########                                Name:    ZINC001411334959
##########                DOCK_Rotatable_Bonds:                   9
##########                         Heavy_Atoms:                  24
##########                    Molecular_Weight:              339.37
##########                DOCK_Rotatable_Bonds:                   9
##########                       Formal_Charge:           0.0199995
##########                     HBond_Acceptors:                   9
##########                        HBond_Donors:                   3
##########                         Heavy_Atoms:                  24
##########                          Grid_Score:          -30.898376
##########                     Grid_vdw_energy:          -26.575249
##########                      Grid_es_energy:           -4.323129
##########           Internal_energy_repulsive:            6.743439

@<TRIPOS>MOLECULE
ZINC001411334959
 46 48 1 0 0
SMALL
USER_CHARGES


@<TRIPOS>ATOM
      1 O1          2.7314    3.2224   53.6577 O.2     1  ZINC001411334959   -0.5400
      2 C2          1.8544    2.6584   54.2770 C.2     1  ZINC001411334959    0.5200
      3 C3          2.2109    1.6564   55.3447 C.3     1  ZINC001411334959   -0.1400
      4 C4          2.6555    2.3946   56.6090 C.3     1  ZINC001411334959   -0.0100
      5 C5          1.5317    3.2698   57.1011 C.2     1  ZINC001411334959    0.0100
      6 N6          0.5505    2.9222   57.9025 N.2     1  ZINC001411334959   -0.2800
      7 N7         -0.2088    3.9427   58.0920 N.pl3   1  ZINC001411334959   -0.2500
      8 N8          0.2298    4.9637   57.4448 N.2     1  ZINC001411334959   -0.2800
      9 C9          1.3232    4.6185   56.8035 C.2     1  ZINC001411334959   -0.0200
     10 N10         0.5610    2.9318   54.0144 N.am    1  ZINC001411334959   -0.7200
     11 C11         0.2145    3.9059   52.9765 C.3     1  ZINC001411334959    0.1200
     12 C12         0.3127    3.3451   51.5479 C.3     1  ZINC001411334959   -0.1400
     13 C13        -0.9730    4.1290   51.2360 C.3     1  ZINC001411334959   -0.1200
     14 C14        -1.9567    3.3645   50.3479 C.3     1  ZINC001411334959    0.1300
     15 N15        -1.2694    2.9105   49.1364 N.am    1  ZINC001411334959   -0.7200
     16 C16        -1.8898    2.0703   48.2845 C.2     1  ZINC001411334959    0.5100
     17 O17        -3.0174    1.6911   48.5202 O.2     1  ZINC001411334959   -0.5100
     18 C18        -1.1822    1.6018   47.0391 C.3     1  ZINC001411334959    0.0700
     19 F19         0.1253    2.0976   46.9957 F       1  ZINC001411334959   -0.1800
     20 C20        -1.1935    0.0515   46.9470 C.3     1  ZINC001411334959   -0.1600
     21 C21        -1.1248   -0.1524   45.4125 C.3     1  ZINC001411334959    0.0500
     22 O22        -1.9131    0.9122   44.8570 O.3     1  ZINC001411334959   -0.3700
     23 C23        -1.9672    2.0109   45.7743 C.3     1  ZINC001411334959    0.0400
     24 C24        -1.2987    4.0381   52.7362 C.3     1  ZINC001411334959   -0.1400
     25 H25         1.3401    1.0408   55.5707 H       1  ZINC001411334959    0.1000
     26 H26         3.0227    1.0212   54.9904 H       1  ZINC001411334959    0.1000
     27 H27         2.9161    1.6698   57.3802 H       1  ZINC001411334959    0.1000
     28 H28         3.5246    3.0122   56.3824 H       1  ZINC001411334959    0.0900
     29 H29        -1.0040    3.9423   58.6475 H       1  ZINC001411334959    0.4700
     30 H30         1.9321    5.2468   56.1704 H       1  ZINC001411334959    0.2000
     31 H31        -0.1403    2.4836   54.5125 H       1  ZINC001411334959    0.4000
     32 H32         0.7210    4.8622   53.1072 H       1  ZINC001411334959    0.1200
     33 H33         1.1846    3.7000   50.9984 H       1  ZINC001411334959    0.0800
     34 H34         0.1886    2.2635   51.4939 H       1  ZINC001411334959    0.0900
     35 H35        -0.7909    5.1458   50.8883 H       1  ZINC001411334959    0.1000
     36 H36        -2.3425    2.5021   50.8915 H       1  ZINC001411334959    0.0800
     37 H37        -2.7830    4.0200   50.0729 H       1  ZINC001411334959    0.0800
     38 H38        -0.3680    3.2146   48.9472 H       1  ZINC001411334959    0.4100
     39 H39        -0.3211   -0.3777   47.4397 H       1  ZINC001411334959    0.1000
     40 H40        -2.1160   -0.3596   47.3570 H       1  ZINC001411334959    0.1100
     41 H41        -0.0936   -0.0796   45.0669 H       1  ZINC001411334959    0.0700
     42 H42        -1.5486   -1.1190   45.1400 H       1  ZINC001411334959    0.1000
     43 H43        -3.0038    2.2240   46.0354 H       1  ZINC001411334959    0.0900
     44 H44        -1.5095    2.8917   45.3238 H       1  ZINC001411334959    0.0900
     45 H45        -1.8633    3.1459   53.0071 H       1  ZINC001411334959    0.0900
     46 H46        -1.7276    4.9523   53.1461 H       1  ZINC001411334959    0.0800
@<TRIPOS>BOND
     1     1     2    2
     2     2     3    1
     3     2    10   am
     4     3     4    1
     5     3    25    1
     6     3    26    1
     7     4     5    1
     8     4    27    1
     9     4    28    1
    10     5     9    1
    11     5     6    2
    12     6     7    1
    13     7     8    1
    14     7    29    1
    15     8     9    2
    16     9    30    1
    17    10    11    1
    18    10    31    1
    19    11    24    1
    20    11    12    1
    21    11    32    1
    22    12    13    1
    23    12    33    1
    24    12    34    1
    25    13    14    1
    26    13    24    1
    27    13    35    1
    28    14    15    1
    29    14    36    1
    30    14    37    1
    31    15    16   am
    32    15    38    1
    33    16    17    2
    34    16    18    1
    35    18    23    1
    36    18    19    1
    37    18    20    1
    38    20    21    1
    39    20    39    1
    40    20    40    1
    41    21    22    1
    42    21    41    1
    43    21    42    1
    44    22    23    1
    45    23    43    1
    46    23    44    1
    47    24    45    1
    48    24    46    1
@<TRIPOS>SUBSTRUCTURE
     1 ZINC001411334959        1 TEMP              0 ****  ****    0 ROOT


##########                                Name:    ZINC001015666108
##########                DOCK_Rotatable_Bonds:                   7
##########                         Heavy_Atoms:                  25
##########                    Molecular_Weight:             346.429
##########                DOCK_Rotatable_Bonds:                   7
##########                       Formal_Charge:          -0.0199997
##########                     HBond_Acceptors:                   7
##########                        HBond_Donors:                   1
##########                         Heavy_Atoms:                  25
##########                          Grid_Score:          -30.894058
##########                     Grid_vdw_energy:          -28.963465
##########                      Grid_es_energy:           -1.930593
##########           Internal_energy_repulsive:            9.982280

@<TRIPOS>MOLECULE
ZINC001015666108
 51 53 1 0 0
SMALL
USER_CHARGES


@<TRIPOS>ATOM
      1 C1         -1.4339    2.5037   55.8481 C.3     1  ZINC001015666108   -0.1400
      2 C2         -2.1943    3.7113   55.2963 C.3     1  ZINC001015666108   -0.0700
      3 C3         -3.6159    3.3138   54.9926 C.2     1  ZINC001015666108   -0.0700
      4 C4         -4.2670    3.4625   53.8016 C.2     1  ZINC001015666108   -0.0900
      5 C5         -3.7040    4.0433   52.5783 C.2     1  ZINC001015666108    0.6100
      6 O6         -4.1206    5.1086   52.1629 O.2     1  ZINC001015666108   -0.5100
      7 N7         -2.7251    3.3973   51.9143 N.am    1  ZINC001015666108   -0.7200
      8 C8         -2.1639    3.9766   50.6913 C.3     1  ZINC001015666108    0.1400
      9 H9         -2.5545    4.9823   50.5358 H       1  ZINC001015666108    0.1100
     10 C10        -0.6203    4.0071   50.7714 C.3     1  ZINC001015666108   -0.1300
     11 C11        -0.2082    2.7258   50.0040 C.3     1  ZINC001015666108    0.0300
     12 N12        -1.1942    2.6617   48.8952 N.3     1  ZINC001015666108   -0.5100
     13 C13        -1.2825    1.3017   48.3471 C.3     1  ZINC001015666108    0.1700
     14 H14        -1.8005    0.6568   49.0569 H       1  ZINC001015666108    0.0900
     15 C15        -2.0564    1.3327   47.0276 C.3     1  ZINC001015666108   -0.1500
     16 C16         0.1053    0.7673   48.1030 C.2     1  ZINC001015666108    0.1900
     17 N17         1.0289    1.3092   47.3463 N.2     1  ZINC001015666108   -0.4800
     18 C18         2.0925    0.4902   47.4304 C.2     1  ZINC001015666108    0.1800
     19 C19         3.4177    0.6753   46.7374 C.3     1  ZINC001015666108    0.0000
     20 C20         3.2645    1.6957   45.6078 C.3     1  ZINC001015666108   -0.1500
     21 C21         4.4535    1.1802   47.7439 C.3     1  ZINC001015666108   -0.1500
     22 N22         1.7674   -0.4897   48.2194 N.2     1  ZINC001015666108   -0.3800
     23 O23         0.6318   -0.3464   48.6212 O.3     1  ZINC001015666108    0.1000
     24 C24        -2.4884    3.0838   49.4792 C.3     1  ZINC001015666108    0.0300
     25 O25        -5.5190    2.9815   53.9474 O.3     1  ZINC001015666108   -0.1700
     26 C26        -5.6796    2.5319   55.1987 C.2     1  ZINC001015666108    0.0000
     27 C27        -4.5252    2.7135   55.8774 C.2     1  ZINC001015666108   -0.2200
     28 H28        -0.4057    2.7911   56.0678 H       1  ZINC001015666108    0.0600
     29 H29        -1.9172    2.1564   56.7613 H       1  ZINC001015666108    0.0600
     30 H30        -1.4372    1.7032   55.1083 H       1  ZINC001015666108    0.0500
     31 H31        -2.1910    4.5118   56.0361 H       1  ZINC001015666108    0.0900
     32 H32        -1.7111    4.0585   54.3830 H       1  ZINC001015666108    0.0700
     33 H33        -2.3922    2.5488   52.2460 H       1  ZINC001015666108    0.4000
     34 H34        -0.2260    4.8957   50.2783 H       1  ZINC001015666108    0.0900
     35 H35        -0.2868    3.9600   51.8081 H       1  ZINC001015666108    0.0800
     36 H36         0.8049    2.8207   49.6129 H       1  ZINC001015666108    0.0800
     37 H37        -0.2933    1.8489   50.6458 H       1  ZINC001015666108    0.0500
     38 H38        -1.5384    1.9776   46.3177 H       1  ZINC001015666108    0.0800
     39 H39        -2.1219    0.3236   46.6209 H       1  ZINC001015666108    0.0700
     40 H40        -3.0602    1.7191   47.2041 H       1  ZINC001015666108    0.0800
     41 H41         3.7476   -0.2778   46.3237 H       1  ZINC001015666108    0.1000
     42 H42         2.9345    2.6487   46.0213 H       1  ZINC001015666108    0.0600
     43 H43         4.2230    1.8296   45.1065 H       1  ZINC001015666108    0.0700
     44 H44         2.5266    1.3360   44.8907 H       1  ZINC001015666108    0.0600
     45 H45         4.1236    2.1332   48.1575 H       1  ZINC001015666108    0.0600
     46 H46         4.5627    0.4532   48.5486 H       1  ZINC001015666108    0.0600
     47 H47         5.4121    1.3141   47.2426 H       1  ZINC001015666108    0.0700
     48 H48        -3.0525    2.2092   49.8029 H       1  ZINC001015666108    0.0600
     49 H49        -3.0617    3.6473   48.7432 H       1  ZINC001015666108    0.1000
     50 H50        -6.5817    2.0926   55.5983 H       1  ZINC001015666108    0.2100
     51 H51        -4.3394    2.4519   56.9086 H       1  ZINC001015666108    0.1600
@<TRIPOS>BOND
     1     1     2    1
     2     1    28    1
     3     1    29    1
     4     1    30    1
     5     2     3    1
     6     2    31    1
     7     2    32    1
     8     3    27    1
     9     3     4    2
    10     4     5    1
    11     4    25    1
    12     5     6    2
    13     5     7   am
    14     7     8    1
    15     7    33    1
    16     8     9    1
    17     8    24    1
    18     8    10    1
    19    10    11    1
    20    10    34    1
    21    10    35    1
    22    11    12    1
    23    11    36    1
    24    11    37    1
    25    12    13    1
    26    12    24    1
    27    13    14    1
    28    13    15    1
    29    13    16    1
    30    15    38    1
    31    15    39    1
    32    15    40    1
    33    16    23    1
    34    16    17    2
    35    17    18    1
    36    18    19    1
    37    18    22    2
    38    19    20    1
    39    19    21    1
    40    19    41    1
    41    20    42    1
    42    20    43    1
    43    20    44    1
    44    21    45    1
    45    21    46    1
    46    21    47    1
    47    22    23    1
    48    24    48    1
    49    24    49    1
    50    25    26    1
    51    26    27    2
    52    26    50    1
    53    27    51    1
@<TRIPOS>SUBSTRUCTURE
     1 ZINC001015666108        1 TEMP              0 ****  ****    0 ROOT


##########                                Name:    ZINC000588570917
##########                DOCK_Rotatable_Bonds:                   7
##########                         Heavy_Atoms:                  25
##########                    Molecular_Weight:             366.481
##########                DOCK_Rotatable_Bonds:                   7
##########                       Formal_Charge:          -0.0100006
##########                     HBond_Acceptors:                   7
##########                        HBond_Donors:                   1
##########                         Heavy_Atoms:                  25
##########                          Grid_Score:          -30.885132
##########                     Grid_vdw_energy:          -31.680182
##########                      Grid_es_energy:            0.795050
##########           Internal_energy_repulsive:           16.329546

@<TRIPOS>MOLECULE
ZINC000588570917
 51 52 1 0 0
SMALL
USER_CHARGES


@<TRIPOS>ATOM
      1 C1         -6.0349    2.7068   57.9092 C.3     1  ZINC000588570917   -0.1300
      2 C2         -5.0680    2.5987   56.7583 C.2     1  ZINC000588570917   -0.0500
      3 C3         -5.4091    3.0588   55.5577 C.2     1  ZINC000588570917   -0.2000
      4 C4         -6.7630    3.6865   55.3479 C.3     1  ZINC000588570917   -0.0900
      5 C5         -7.7671    2.6077   54.9374 C.3     1  ZINC000588570917   -0.1500
      6 C6         -4.4649    2.9548   54.4350 C.2     1  ZINC000588570917    0.5600
      7 O7         -3.3966    2.3942   54.5889 O.2     1  ZINC000588570917   -0.5100
      8 N8         -4.7835    3.4806   53.2357 N.am    1  ZINC000588570917   -0.6800
      9 C9         -3.8858    3.3818   52.1681 C.ar    1  ZINC000588570917    0.2100
     10 C10        -4.0862    2.4308   51.1760 C.ar    1  ZINC000588570917   -0.1700
     11 C11        -3.1979    2.3363   50.1227 C.ar    1  ZINC000588570917    0.0000
     12 C12        -2.1100    3.1871   50.0552 C.ar    1  ZINC000588570917   -0.7000
     13 S13        -0.9792    3.0631   48.7096 S.o2    1  ZINC000588570917    2.6900
     14 O14        -1.4138    3.9991   47.7326 O.2     1  ZINC000588570917   -0.9500
     15 O15         0.3234    3.0804   49.2772 O.2     1  ZINC000588570917   -0.9500
     16 N16        -1.1773    1.5617   48.0395 N.am    1  ZINC000588570917   -1.0000
     17 C17        -1.5740    1.4073   46.6309 C.3     1  ZINC000588570917    0.0900
     18 C18        -0.6022    0.4303   45.9592 C.3     1  ZINC000588570917    0.0700
     19 H19         0.3868    0.8845   45.8985 H       1  ZINC000588570917    0.0700
     20 C20        -1.1005    0.1012   44.5506 C.3     1  ZINC000588570917   -0.1500
     21 O21        -0.5302   -0.7691   46.7337 O.3     1  ZINC000588570917   -0.3700
     22 C22        -0.0193   -0.5823   48.0558 C.3     1  ZINC000588570917    0.0800
     23 H23         0.0445   -1.5461   48.5610 H       1  ZINC000588570917    0.1200
     24 C24         1.3725    0.0489   47.9813 C.3     1  ZINC000588570917   -0.1900
     25 C25        -0.9558    0.3427   48.8333 C.3     1  ZINC000588570917    0.0900
     26 C26        -1.9078    4.1355   51.0410 C.ar    1  ZINC000588570917    0.0000
     27 C27        -2.7949    4.2385   52.0945 C.ar    1  ZINC000588570917   -0.1400
     28 H28        -5.5831    2.2799   58.8046 H       1  ZINC000588570917    0.0600
     29 H29        -6.2723    3.7557   58.0869 H       1  ZINC000588570917    0.0800
     30 H30        -6.9485    2.1631   57.6687 H       1  ZINC000588570917    0.0800
     31 H31        -4.0983    2.1476   56.9082 H       1  ZINC000588570917    0.1300
     32 H32        -7.0931    4.1565   56.2743 H       1  ZINC000588570917    0.0700
     33 H33        -6.6967    4.4390   54.5622 H       1  ZINC000588570917    0.0800
     34 H34        -7.8334    1.8551   55.7231 H       1  ZINC000588570917    0.0500
     35 H35        -8.7464    3.0616   54.7856 H       1  ZINC000588570917    0.0600
     36 H36        -7.4370    2.1376   54.0110 H       1  ZINC000588570917    0.0600
     37 H37        -5.6355    3.9277   53.1130 H       1  ZINC000588570917    0.4100
     38 H38        -4.9355    1.7656   51.2283 H       1  ZINC000588570917    0.1400
     39 H39        -3.3531    1.5967   49.3510 H       1  ZINC000588570917    0.1400
     40 H40        -2.5883    1.0118   46.5764 H       1  ZINC000588570917    0.0900
     41 H41        -1.5288    2.3736   46.1286 H       1  ZINC000588570917    0.1000
     42 H42        -1.1588    1.0171   43.9625 H       1  ZINC000588570917    0.0700
     43 H43        -0.4091   -0.5934   44.0736 H       1  ZINC000588570917    0.0700
     44 H44        -2.0888   -0.3546   44.6120 H       1  ZINC000588570917    0.0700
     45 H45         1.3075    1.0133   47.4777 H       1  ZINC000588570917    0.0600
     46 H46         1.7613    0.1910   48.9897 H       1  ZINC000588570917    0.0700
     47 H47         2.0400   -0.6080   47.4237 H       1  ZINC000588570917    0.0700
     48 H48        -0.5034    0.6031   49.7902 H       1  ZINC000588570917    0.1000
     49 H49        -1.9095   -0.1575   49.0016 H       1  ZINC000588570917    0.0900
     50 H50        -1.0571    4.7985   50.9854 H       1  ZINC000588570917    0.1400
     51 H51        -2.6366    4.9796   52.8640 H       1  ZINC000588570917    0.1500
@<TRIPOS>BOND
     1     1     2    1
     2     1    28    1
     3     1    29    1
     4     1    30    1
     5     2     3    2
     6     2    31    1
     7     3     4    1
     8     3     6    1
     9     4     5    1
    10     4    32    1
    11     4    33    1
    12     5    34    1
    13     5    35    1
    14     5    36    1
    15     6     7    2
    16     6     8   am
    17     8     9    1
    18     8    37    1
    19     9    27   ar
    20     9    10   ar
    21    10    11   ar
    22    10    38    1
    23    11    12   ar
    24    11    39    1
    25    12    13    1
    26    12    26   ar
    27    13    14    2
    28    13    15    2
    29    13    16   am
    30    16    25    1
    31    16    17    1
    32    17    18    1
    33    17    40    1
    34    17    41    1
    35    18    19    1
    36    18    20    1
    37    18    21    1
    38    20    42    1
    39    20    43    1
    40    20    44    1
    41    21    22    1
    42    22    23    1
    43    22    24    1
    44    22    25    1
    45    24    45    1
    46    24    46    1
    47    24    47    1
    48    25    48    1
    49    25    49    1
    50    26    27   ar
    51    26    50    1
    52    27    51    1
@<TRIPOS>SUBSTRUCTURE
     1 ZINC000588570917        1 TEMP              0 ****  ****    0 ROOT


##########                                Name:    ZINC000564088286
##########                DOCK_Rotatable_Bonds:                   6
##########                         Heavy_Atoms:                  25
##########                    Molecular_Weight:             398.934
##########                DOCK_Rotatable_Bonds:                   6
##########                       Formal_Charge:               -0.05
##########                     HBond_Acceptors:                   8
##########                        HBond_Donors:                   1
##########                         Heavy_Atoms:                  25
##########                          Grid_Score:          -30.870260
##########                     Grid_vdw_energy:          -31.349192
##########                      Grid_es_energy:            0.478932
##########           Internal_energy_repulsive:           11.332278

@<TRIPOS>MOLECULE
ZINC000564088286
 44 46 1 0 0
SMALL
USER_CHARGES


@<TRIPOS>ATOM
      1 C1          2.5409    2.2249   43.8813 C.3     1  ZINC000564088286   -0.1600
      2 C2          1.3069    2.1892   44.7852 C.3     1  ZINC000564088286    0.1100
      3 N3          0.8105    0.8141   44.8798 N.am    1  ZINC000564088286   -1.1200
      4 S4         -0.8048    0.5310   45.1103 S.o2    1  ZINC000564088286    2.7000
      5 O5         -1.4867    1.2405   44.0851 O.2     1  ZINC000564088286   -0.9600
      6 O6         -0.9422   -0.8691   45.3101 O.2     1  ZINC000564088286   -0.9600
      7 C7         -1.2568    1.2974   46.6310 C.ar    1  ZINC000564088286   -0.6800
      8 C8         -1.2982    2.6761   46.7247 C.ar    1  ZINC000564088286   -0.0200
      9 C9         -1.6529    3.2774   47.9178 C.ar    1  ZINC000564088286   -0.1300
     10 C10        -1.9667    2.5002   49.0171 C.ar    1  ZINC000564088286   -0.0100
     11 C11        -2.3528    3.1557   50.3179 C.3     1  ZINC000564088286   -0.1100
     12 C12        -1.1496    3.2234   51.2228 C.2     1  ZINC000564088286    0.5200
     13 O13        -0.0756    2.8144   50.8353 O.2     1  ZINC000564088286   -0.5200
     14 N14        -1.2670    3.7384   52.4627 N.am    1  ZINC000564088286   -0.6200
     15 C15        -2.5599    4.2400   52.9525 C.3     1  ZINC000564088286    0.1200
     16 C16        -3.0136    3.3601   54.1214 C.3     1  ZINC000564088286   -0.0700
     17 C17        -1.8439    3.1379   55.0567 C.2     1  ZINC000564088286   -0.1600
     18 C18        -0.5502    3.3260   54.7360 C.2     1  ZINC000564088286   -0.1200
     19 C19         0.3330    3.0417   55.7735 C.2     1  ZINC000564088286   -0.1100
     20 C20        -0.2268    2.6399   56.9115 C.2     1  ZINC000564088286   -0.1500
     21 Cl21        0.6361    2.2245   58.3594 Cl      1  ZINC000564088286   -0.0100
     22 S22        -1.9733    2.5947   56.7248 S.3     1  ZINC000564088286    0.1600
     23 C23        -0.1076    3.8080   53.3634 C.3     1  ZINC000564088286    0.1700
     24 C24        -1.9265    1.1216   48.9230 C.ar    1  ZINC000564088286   -0.1300
     25 C25        -1.5756    0.5202   47.7288 C.ar    1  ZINC000564088286   -0.0200
     26 H26         3.3178    1.5863   44.3017 H       1  ZINC000564088286    0.0600
     27 H27         2.2737    1.8659   42.8875 H       1  ZINC000564088286    0.0600
     28 H28         2.9102    3.2480   43.8109 H       1  ZINC000564088286    0.0700
     29 H29         1.5741    2.5483   45.7791 H       1  ZINC000564088286    0.0800
     30 H30         0.5300    2.8279   44.3649 H       1  ZINC000564088286    0.0700
     31 H31         1.4279    0.0695   44.8074 H       1  ZINC000564088286    0.4200
     32 H32        -1.0532    3.2832   45.8659 H       1  ZINC000564088286    0.1400
     33 H33        -1.6846    4.3544   47.9911 H       1  ZINC000564088286    0.1300
     34 H34        -2.7175    4.1641   50.1224 H       1  ZINC000564088286    0.1100
     35 H35        -3.1375    2.5726   50.7999 H       1  ZINC000564088286    0.1100
     36 H36        -2.4483    5.2699   53.2914 H       1  ZINC000564088286    0.0800
     37 H37        -3.2976    4.1934   52.1514 H       1  ZINC000564088286    0.1100
     38 H38        -3.8212    3.8566   54.6593 H       1  ZINC000564088286    0.0900
     39 H39        -3.3634    2.4004   53.7410 H       1  ZINC000564088286    0.0900
     40 H40         1.4027    3.1405   55.6620 H       1  ZINC000564088286    0.1500
     41 H41         0.6929    3.1702   52.9885 H       1  ZINC000564088286    0.1000
     42 H42         0.2406    4.8388   53.4286 H       1  ZINC000564088286    0.0900
     43 H43        -2.1720    0.5145   49.7818 H       1  ZINC000564088286    0.1300
     44 H44        -1.5442   -0.5568   47.6553 H       1  ZINC000564088286    0.1400
@<TRIPOS>BOND
     1     1     2    1
     2     1    26    1
     3     1    27    1
     4     1    28    1
     5     2     3    1
     6     2    29    1
     7     2    30    1
     8     3     4   am
     9     3    31    1
    10     4     5    2
    11     4     6    2
    12     4     7    1
    13     7    25   ar
    14     7     8   ar
    15     8     9   ar
    16     8    32    1
    17     9    10   ar
    18     9    33    1
    19    10    11    1
    20    10    24   ar
    21    11    12    1
    22    11    34    1
    23    11    35    1
    24    12    13    2
    25    12    14   am
    26    14    23    1
    27    14    15    1
    28    15    16    1
    29    15    36    1
    30    15    37    1
    31    16    17    1
    32    16    38    1
    33    16    39    1
    34    17    22    1
    35    17    18    2
    36    18    19    1
    37    18    23    1
    38    19    20    2
    39    19    40    1
    40    20    21    1
    41    20    22    1
    42    23    41    1
    43    23    42    1
    44    24    25   ar
    45    24    43    1
    46    25    44    1
@<TRIPOS>SUBSTRUCTURE
     1 ZINC000564088286        1 TEMP              0 ****  ****    0 ROOT


##########                                Name:    ZINC000416583757
##########                DOCK_Rotatable_Bonds:                   7
##########                         Heavy_Atoms:                  20
##########                    Molecular_Weight:             380.693
##########                DOCK_Rotatable_Bonds:                   7
##########                       Formal_Charge:         1.04308e-07
##########                     HBond_Acceptors:                   7
##########                        HBond_Donors:                   1
##########                         Heavy_Atoms:                  20
##########                          Grid_Score:          -30.866056
##########                     Grid_vdw_energy:          -30.194969
##########                      Grid_es_energy:           -0.671087
##########           Internal_energy_repulsive:            9.361512

@<TRIPOS>MOLECULE
ZINC000416583757
 35 35 1 0 0
SMALL
USER_CHARGES


@<TRIPOS>ATOM
      1 C1          0.8043    0.6659   47.4731 C.3     1  ZINC000416583757   -0.1500
      2 C2         -0.4021   -0.2303   47.7594 C.3     1  ZINC000416583757   -0.0200
      3 H3         -0.9290   -0.4388   46.8283 H       1  ZINC000416583757    0.1200
      4 C4          0.0569   -1.4949   48.3571 C.1     1  ZINC000416583757    0.2100
      5 N5          0.4112   -2.4707   48.8183 N.1     1  ZINC000416583757   -0.4200
      6 C6         -1.3460    0.4801   48.7316 C.3     1  ZINC000416583757    0.1300
      7 N7         -1.6791    1.8068   48.2070 N.am    1  ZINC000416583757   -1.0100
      8 C8         -2.3376    1.9354   46.9047 C.3     1  ZINC000416583757    0.0800
      9 S9         -1.3109    3.1612   49.0860 S.o2    1  ZINC000416583757    2.7800
     10 O10         0.0742    3.0767   49.3919 O.2     1  ZINC000416583757   -0.9700
     11 O11        -1.8881    4.2588   48.3924 O.2     1  ZINC000416583757   -0.9700
     12 N12        -2.1164    3.0436   50.5282 N.am    1  ZINC000416583757   -1.1300
     13 C13        -1.9862    4.1057   51.5286 C.3     1  ZINC000416583757    0.1600
     14 C14        -1.5380    3.5101   52.8383 C.ar    1  ZINC000416583757   -0.0800
     15 C15        -2.4752    3.1093   53.7715 C.ar    1  ZINC000416583757   -0.0800
     16 C16        -2.0642    2.5618   54.9741 C.ar    1  ZINC000416583757   -0.0300
     17 Cl17       -3.2415    2.0579   56.1461 Cl      1  ZINC000416583757   -0.0500
     18 C18        -0.7151    2.4158   55.2418 C.ar    1  ZINC000416583757   -0.0700
     19 C19         0.2224    2.8170   54.3073 C.ar    1  ZINC000416583757   -0.0800
     20 Br20        2.0671    2.6176   54.6725 Br      1  ZINC000416583757   -0.0300
     21 C21        -0.1897    3.3593   53.1034 C.ar    1  ZINC000416583757   -0.0700
     22 H22         1.5338    0.1147   46.8797 H       1  ZINC000416583757    0.0700
     23 H23         0.4789    1.5478   46.9214 H       1  ZINC000416583757    0.0800
     24 H24         1.2598    0.9738   48.4144 H       1  ZINC000416583757    0.0700
     25 H25        -2.2585   -0.1052   48.8452 H       1  ZINC000416583757    0.0900
     26 H26        -0.8582    0.5845   49.7007 H       1  ZINC000416583757    0.1000
     27 H27        -3.4190    1.9186   47.0411 H       1  ZINC000416583757    0.0700
     28 H28        -2.0446    2.8772   46.4407 H       1  ZINC000416583757    0.0800
     29 H29        -2.0394    1.1061   46.2632 H       1  ZINC000416583757    0.0800
     30 H30        -2.6745    2.2714   50.7104 H       1  ZINC000416583757    0.4200
     31 H31        -1.2501    4.8351   51.1904 H       1  ZINC000416583757    0.0800
     32 H32        -2.9494    4.5977   51.6639 H       1  ZINC000416583757    0.1000
     33 H33        -3.5286    3.2238   53.5624 H       1  ZINC000416583757    0.1500
     34 H34        -0.3937    1.9888   56.1804 H       1  ZINC000416583757    0.1500
     35 H35         0.5424    3.6726   52.3737 H       1  ZINC000416583757    0.1400
@<TRIPOS>BOND
     1     1     2    1
     2     1    22    1
     3     1    23    1
     4     1    24    1
     5     2     3    1
     6     2     4    1
     7     2     6    1
     8     4     5    3
     9     6     7    1
    10     6    25    1
    11     6    26    1
    12     7     8    1
    13     7     9   am
    14     8    27    1
    15     8    28    1
    16     8    29    1
    17     9    10    2
    18     9    11    2
    19     9    12   am
    20    12    13    1
    21    12    30    1
    22    13    14    1
    23    13    31    1
    24    13    32    1
    25    14    21   ar
    26    14    15   ar
    27    15    16   ar
    28    15    33    1
    29    16    17    1
    30    16    18   ar
    31    18    19   ar
    32    18    34    1
    33    19    20    1
    34    19    21   ar
    35    21    35    1
@<TRIPOS>SUBSTRUCTURE
     1 ZINC000416583757        1 TEMP              0 ****  ****    0 ROOT


##########                                Name:    ZINC001143596311
##########                DOCK_Rotatable_Bonds:                   9
##########                         Heavy_Atoms:                  21
##########                    Molecular_Weight:             335.811
##########                DOCK_Rotatable_Bonds:                   9
##########                       Formal_Charge:          0.00999959
##########                     HBond_Acceptors:                   9
##########                        HBond_Donors:                   3
##########                         Heavy_Atoms:                  21
##########                          Grid_Score:          -30.858707
##########                     Grid_vdw_energy:          -29.991354
##########                      Grid_es_energy:           -0.867354
##########           Internal_energy_repulsive:           14.840789

@<TRIPOS>MOLECULE
ZINC001143596311
 39 39 1 0 0
SMALL
USER_CHARGES


@<TRIPOS>ATOM
      1 C1         -7.5712    1.9449   56.7061 C.3     1  ZINC001143596311    0.0400
      2 O2         -6.4459    1.4863   57.4582 O.3     1  ZINC001143596311   -0.2600
      3 N3         -6.7346    1.2409   58.8712 N.3     1  ZINC001143596311   -0.3700
      4 C4         -7.1149    2.4845   59.5545 C.3     1  ZINC001143596311    0.0000
      5 C5         -7.7756    0.2159   59.0255 C.3     1  ZINC001143596311    0.0400
      6 C6         -7.8017   -0.2701   60.4760 C.3     1  ZINC001143596311   -0.1300
      7 C7         -8.0842   -1.7736   60.5051 C.3     1  ZINC001143596311    0.1200
      8 N8         -9.4382   -2.0259   60.0061 N.am    1  ZINC001143596311   -0.7200
      9 C9        -10.4772   -2.0589   60.8638 C.2     1  ZINC001143596311    0.5600
     10 O10       -10.2911   -1.8779   62.0513 O.2     1  ZINC001143596311   -0.5200
     11 C11       -11.8430   -2.3152   60.3606 C.ar    1  ZINC001143596311   -0.1500
     12 C12       -12.9478   -1.7921   61.0349 C.ar    1  ZINC001143596311   -0.0200
     13 C13       -14.2198   -2.0345   60.5605 C.ar    1  ZINC001143596311   -0.1300
     14 C14       -14.4025   -2.7955   59.4179 C.ar    1  ZINC001143596311    0.0700
     15 Cl15      -16.0068   -3.0964   58.8268 Cl      1  ZINC001143596311   -0.0200
     16 C16       -13.3099   -3.3172   58.7444 C.ar    1  ZINC001143596311   -0.6800
     17 S17       -13.5522   -4.2837   57.2912 S.o2    1  ZINC001143596311    2.7000
     18 N18       -14.5408   -5.5471   57.7020 N.am    1  ZINC001143596311   -1.2500
     19 O19       -14.2917   -3.4726   56.3887 O.2     1  ZINC001143596311   -0.9400
     20 O20       -12.2890   -4.8502   56.9709 O.2     1  ZINC001143596311   -0.9500
     21 C21       -12.0331   -3.0764   59.2056 C.ar    1  ZINC001143596311    0.0500
     22 H22        -8.3644    1.1984   56.7475 H       1  ZINC001143596311    0.0400
     23 H23        -7.9326    2.8827   57.1283 H       1  ZINC001143596311    0.0500
     24 H24        -7.2751    2.1034   55.6692 H       1  ZINC001143596311    0.0900
     25 H25        -8.0052    2.9005   59.0830 H       1  ZINC001143596311    0.0400
     26 H26        -7.3241    2.2734   60.6032 H       1  ZINC001143596311    0.0900
     27 H27        -6.2975    3.2021   59.4844 H       1  ZINC001143596311    0.0800
     28 H28        -8.7454    0.6413   58.7674 H       1  ZINC001143596311    0.0500
     29 H29        -7.5596   -0.6236   58.3647 H       1  ZINC001143596311    0.0900
     30 H30        -6.8367   -0.0727   60.9428 H       1  ZINC001143596311    0.0800
     31 H31        -8.5840    0.2572   61.0219 H       1  ZINC001143596311    0.0800
     32 H32        -7.3619   -2.2912   59.8738 H       1  ZINC001143596311    0.0800
     33 H33        -8.0000   -2.1393   61.5284 H       1  ZINC001143596311    0.0800
     34 H34        -9.5869   -2.1691   59.0583 H       1  ZINC001143596311    0.4000
     35 H35       -12.8066   -1.1991   61.9264 H       1  ZINC001143596311    0.1500
     36 H36       -15.0754   -1.6304   61.0812 H       1  ZINC001143596311    0.1600
     37 H37       -14.7967   -6.2004   57.0321 H       1  ZINC001143596311    0.4200
     38 H38       -14.8638   -5.6341   58.6125 H       1  ZINC001143596311    0.4200
     39 H39       -11.1821   -3.4837   58.6798 H       1  ZINC001143596311    0.1700
@<TRIPOS>BOND
     1     1     2    1
     2     1    22    1
     3     1    23    1
     4     1    24    1
     5     2     3    1
     6     3     4    1
     7     3     5    1
     8     4    25    1
     9     4    26    1
    10     4    27    1
    11     5     6    1
    12     5    28    1
    13     5    29    1
    14     6     7    1
    15     6    30    1
    16     6    31    1
    17     7     8    1
    18     7    32    1
    19     7    33    1
    20     8     9   am
    21     8    34    1
    22     9    10    2
    23     9    11    1
    24    11    21   ar
    25    11    12   ar
    26    12    13   ar
    27    12    35    1
    28    13    14   ar
    29    13    36    1
    30    14    15    1
    31    14    16   ar
    32    16    17    1
    33    16    21   ar
    34    17    18   am
    35    17    19    2
    36    17    20    2
    37    18    37    1
    38    18    38    1
    39    21    39    1
@<TRIPOS>SUBSTRUCTURE
     1 ZINC001143596311        1 TEMP              0 ****  ****    0 ROOT


##########                                Name:    ZINC000410354665
##########                DOCK_Rotatable_Bonds:                   7
##########                         Heavy_Atoms:                  29
##########                    Molecular_Weight:             417.889
##########                DOCK_Rotatable_Bonds:                   7
##########                       Formal_Charge:        -3.72529e-08
##########                     HBond_Acceptors:                   7
##########                        HBond_Donors:                   1
##########                         Heavy_Atoms:                  29
##########                          Grid_Score:          -30.850748
##########                     Grid_vdw_energy:          -31.463459
##########                      Grid_es_energy:            0.612712
##########           Internal_energy_repulsive:           13.525619

@<TRIPOS>MOLECULE
ZINC000410354665
 53 56 1 0 0
SMALL
USER_CHARGES


@<TRIPOS>ATOM
      1 C1         -1.0117    2.7187   56.1443 C.3     1  ZINC000410354665    0.0200
      2 O2         -2.3079    2.1281   56.0309 O.3     1  ZINC000410354665   -0.3000
      3 C3         -3.1052    2.5772   55.0248 C.ar    1  ZINC000410354665    0.0900
      4 C4         -2.5423    3.0331   53.8489 C.ar    1  ZINC000410354665   -0.1100
      5 C5         -3.3647    3.4935   52.8167 C.ar    1  ZINC000410354665   -0.1400
      6 C6         -2.7684    3.9814   51.5577 C.2     1  ZINC000410354665    0.5700
      7 O7         -3.4842    4.2760   50.6200 O.2     1  ZINC000410354665   -0.5300
      8 N8         -1.4304    4.1001   51.4475 N.am    1  ZINC000410354665   -0.7200
      9 C9         -0.8387    4.5860   50.1984 C.3     1  ZINC000410354665    0.1700
     10 C10        -0.5999    3.4232   49.2700 C.ar    1  ZINC000410354665   -0.1000
     11 C11         0.5825    2.7115   49.3457 C.ar    1  ZINC000410354665   -0.0900
     12 C12         0.8061    1.6450   48.4936 C.ar    1  ZINC000410354665   -0.0300
     13 Cl13        2.2926    0.7537   48.5911 Cl      1  ZINC000410354665   -0.0400
     14 C14        -0.1573    1.2868   47.5613 C.ar    1  ZINC000410354665    0.0700
     15 O15         0.0797    0.2398   46.7241 O.3     1  ZINC000410354665   -0.2900
     16 C16        -1.0567   -0.3215   46.0581 C.3     1  ZINC000410354665    0.0200
     17 C17        -1.9006    0.8297   45.4943 C.3     1  ZINC000410354665    0.0200
     18 O18        -2.3078    1.6629   46.5851 O.3     1  ZINC000410354665   -0.3000
     19 C19        -1.3474    2.0004   47.4886 C.ar    1  ZINC000410354665    0.0600
     20 C20        -1.5663    3.0666   48.3482 C.ar    1  ZINC000410354665   -0.0900
     21 C21        -4.7519    3.4906   52.9790 C.ar    1  ZINC000410354665   -0.0800
     22 C22        -5.3072    3.0348   54.1553 C.ar    1  ZINC000410354665   -0.1900
     23 C23        -4.4911    2.5721   55.1782 C.ar    1  ZINC000410354665    0.1400
     24 O24        -5.0430    2.1240   56.3351 O.3     1  ZINC000410354665   -0.2900
     25 C25        -6.1040    2.9026   56.8920 C.3     1  ZINC000410354665    0.0700
     26 C26        -6.5489    2.3166   58.2550 C.3     1  ZINC000410354665   -0.1500
     27 C27        -7.1961    3.5364   58.9566 C.3     1  ZINC000410354665   -0.1200
     28 C28        -6.3035    4.7260   58.5470 C.3     1  ZINC000410354665   -0.1200
     29 C29        -5.6091    4.3230   57.2343 C.3     1  ZINC000410354665   -0.1200
     30 H30        -0.4511    2.5437   55.2261 H       1  ZINC000410354665    0.0600
     31 H31        -1.1142    3.7913   56.3085 H       1  ZINC000410354665    0.0600
     32 H32        -0.4810    2.2715   56.9848 H       1  ZINC000410354665    0.1000
     33 H33        -1.4692    3.0342   53.7273 H       1  ZINC000410354665    0.1500
     34 H34        -0.8593    3.8640   52.1950 H       1  ZINC000410354665    0.4000
     35 H35        -1.5187    5.2947   49.7257 H       1  ZINC000410354665    0.0800
     36 H36         0.1090    5.0798   50.4133 H       1  ZINC000410354665    0.0900
     37 H37         1.3332    2.9888   50.0709 H       1  ZINC000410354665    0.1500
     38 H38        -0.7244   -0.9664   45.2445 H       1  ZINC000410354665    0.1300
     39 H39        -1.6498   -0.8992   46.7669 H       1  ZINC000410354665    0.0800
     40 H40        -1.3056    1.4110   44.7899 H       1  ZINC000410354665    0.0800
     41 H41        -2.7797    0.4283   44.9902 H       1  ZINC000410354665    0.1300
     42 H42        -2.4914    3.6214   48.2948 H       1  ZINC000410354665    0.1400
     43 H43        -5.3894    3.8458   52.1829 H       1  ZINC000410354665    0.1300
     44 H44        -6.3801    3.0334   54.2795 H       1  ZINC000410354665    0.1400
     45 H45        -6.9458    2.9481   56.2010 H       1  ZINC000410354665    0.0800
     46 H46        -7.2793    1.5200   58.1131 H       1  ZINC000410354665    0.0700
     47 H47        -5.6888    1.9573   58.8201 H       1  ZINC000410354665    0.0800
     48 H48        -8.2158    3.6843   58.6010 H       1  ZINC000410354665    0.0700
     49 H49        -7.1837    3.4049   60.0386 H       1  ZINC000410354665    0.0700
     50 H50        -6.9149    5.6145   58.3887 H       1  ZINC000410354665    0.0700
     51 H51        -5.5589    4.9175   59.3198 H       1  ZINC000410354665    0.0700
     52 H52        -4.5276    4.3191   57.3699 H       1  ZINC000410354665    0.0800
     53 H53        -5.8835    5.0160   56.4389 H       1  ZINC000410354665    0.0700
@<TRIPOS>BOND
     1     1     2    1
     2     1    30    1
     3     1    31    1
     4     1    32    1
     5     2     3    1
     6     3    23   ar
     7     3     4   ar
     8     4     5   ar
     9     4    33    1
    10     5     6    1
    11     5    21   ar
    12     6     7    2
    13     6     8   am
    14     8     9    1
    15     8    34    1
    16     9    10    1
    17     9    35    1
    18     9    36    1
    19    10    20   ar
    20    10    11   ar
    21    11    12   ar
    22    11    37    1
    23    12    13    1
    24    12    14   ar
    25    14    19   ar
    26    14    15    1
    27    15    16    1
    28    16    17    1
    29    16    38    1
    30    16    39    1
    31    17    18    1
    32    17    40    1
    33    17    41    1
    34    18    19    1
    35    19    20   ar
    36    20    42    1
    37    21    22   ar
    38    21    43    1
    39    22    23   ar
    40    22    44    1
    41    23    24    1
    42    24    25    1
    43    25    29    1
    44    25    26    1
    45    25    45    1
    46    26    27    1
    47    26    46    1
    48    26    47    1
    49    27    28    1
    50    27    48    1
    51    27    49    1
    52    28    29    1
    53    28    50    1
    54    28    51    1
    55    29    52    1
    56    29    53    1
@<TRIPOS>SUBSTRUCTURE
     1 ZINC000410354665        1 TEMP              0 ****  ****    0 ROOT


##########                                Name:    ZINC000185598309
##########                DOCK_Rotatable_Bonds:                  14
##########                         Heavy_Atoms:                  25
##########                    Molecular_Weight:             347.457
##########                DOCK_Rotatable_Bonds:                  14
##########                       Formal_Charge:               -0.02
##########                     HBond_Acceptors:                   6
##########                        HBond_Donors:                   4
##########                         Heavy_Atoms:                  25
##########                          Grid_Score:          -30.842772
##########                     Grid_vdw_energy:          -27.621328
##########                      Grid_es_energy:           -3.221443
##########           Internal_energy_repulsive:           10.517274

@<TRIPOS>MOLECULE
ZINC000185598309
 54 54 1 0 0
SMALL
USER_CHARGES


@<TRIPOS>ATOM
      1 C1          3.3168    1.0294   55.7645 C.3     1  ZINC000185598309   -0.1300
      2 C2          2.2540    1.8006   56.5040 C.2     1  ZINC000185598309   -0.1600
      3 C3          1.1618    2.1711   55.8827 C.2     1  ZINC000185598309   -0.1600
      4 C4          0.0997    2.9438   56.6216 C.3     1  ZINC000185598309   -0.0900
      5 C5         -1.2143    2.8791   55.8407 C.3     1  ZINC000185598309    0.1700
      6 H6         -1.3170    1.8951   55.3831 H       1  ZINC000185598309    0.1000
      7 C7         -1.2125    3.9516   54.7495 C.3     1  ZINC000185598309    0.0600
      8 O8         -1.2790    5.2451   55.3528 O.3     1  ZINC000185598309   -0.5700
      9 N9         -2.3365    3.1128   56.7531 N.am    1  ZINC000185598309   -0.7300
     10 C10        -3.5853    2.7589   56.3899 C.2     1  ZINC000185598309    0.7000
     11 O11        -3.7802    2.2443   55.3058 O.2     1  ZINC000185598309   -0.5900
     12 N12        -4.6178    2.9754   57.2287 N.am    1  ZINC000185598309   -0.7400
     13 C13        -5.9754    2.5923   56.8331 C.3     1  ZINC000185598309    0.1800
     14 C14        -6.7200    2.0695   58.0346 C.ar    1  ZINC000185598309   -0.0900
     15 C15        -6.6654    2.7563   59.2333 C.ar    1  ZINC000185598309   -0.1100
     16 C16        -7.3470    2.2796   60.3384 C.ar    1  ZINC000185598309   -0.1000
     17 C17        -8.0846    1.1158   60.2474 C.ar    1  ZINC000185598309   -0.1100
     18 C18        -8.1417    0.4237   59.0445 C.ar    1  ZINC000185598309    0.1400
     19 N19        -8.8886   -0.7556   58.9489 N.am    1  ZINC000185598309   -0.6800
     20 C20       -10.2041   -0.6986   58.6608 C.2     1  ZINC000185598309    0.5200
     21 O21       -10.7403    0.3749   58.4847 O.2     1  ZINC000185598309   -0.5200
     22 C22       -11.0085   -1.9688   58.5578 C.3     1  ZINC000185598309   -0.1100
     23 H23       -10.3717   -2.8221   58.7907 H       1  ZINC000185598309    0.1000
     24 C24       -11.5543   -2.1129   57.1358 C.3     1  ZINC000185598309   -0.1500
     25 C25       -12.1735   -1.9164   59.5484 C.3     1  ZINC000185598309   -0.1100
     26 C26       -11.6289   -1.9442   60.9779 C.3     1  ZINC000185598309   -0.1600
     27 C27        -7.4606    0.9078   57.9355 C.ar    1  ZINC000185598309   -0.1300
     28 H28         4.1439    0.8115   56.4402 H       1  ZINC000185598309    0.0600
     29 H29         2.8956    0.0954   55.3928 H       1  ZINC000185598309    0.0600
     30 H30         3.6796    1.6237   54.9259 H       1  ZINC000185598309    0.0600
     31 H31         2.3927    2.0478   57.5462 H       1  ZINC000185598309    0.1100
     32 H32         1.0225    1.9227   54.8409 H       1  ZINC000185598309    0.1100
     33 H33        -0.0436    2.5093   57.6110 H       1  ZINC000185598309    0.0900
     34 H34         0.4113    3.9835   56.7231 H       1  ZINC000185598309    0.0800
     35 H35        -0.2975    3.8709   54.1625 H       1  ZINC000185598309    0.0500
     36 H36        -2.0753    3.8092   54.0988 H       1  ZINC000185598309    0.0500
     37 H37        -2.0647    5.3845   55.8991 H       1  ZINC000185598309    0.3800
     38 H38        -2.1808    3.5223   57.6186 H       1  ZINC000185598309    0.4000
     39 H39        -4.4621    3.3849   58.0941 H       1  ZINC000185598309    0.4000
     40 H40        -6.4964    3.4620   56.4329 H       1  ZINC000185598309    0.0700
     41 H41        -5.9260    1.8154   56.0701 H       1  ZINC000185598309    0.0800
     42 H42        -6.0893    3.6667   59.3070 H       1  ZINC000185598309    0.1300
     43 H43        -7.3019    2.8179   61.2736 H       1  ZINC000185598309    0.1300
     44 H44        -8.6162    0.7439   61.1108 H       1  ZINC000185598309    0.1300
     45 H45        -8.4598   -1.6141   59.0898 H       1  ZINC000185598309    0.4100
     46 H46       -10.7244   -2.1502   56.4301 H       1  ZINC000185598309    0.0600
     47 H47       -12.1362   -3.0315   57.0612 H       1  ZINC000185598309    0.0800
     48 H48       -12.1911   -1.2595   56.9029 H       1  ZINC000185598309    0.0600
     49 H49       -12.7410   -0.9988   59.3936 H       1  ZINC000185598309    0.0700
     50 H50       -12.8236   -2.7769   59.3904 H       1  ZINC000185598309    0.0700
     51 H51       -11.0613   -2.8619   61.1327 H       1  ZINC000185598309    0.0600
     52 H52       -10.9787   -1.0838   61.1359 H       1  ZINC000185598309    0.0600
     53 H53       -12.4589   -1.9070   61.6836 H       1  ZINC000185598309    0.0600
     54 H54        -7.5031    0.3719   56.9988 H       1  ZINC000185598309    0.1300
@<TRIPOS>BOND
     1     1     2    1
     2     1    28    1
     3     1    29    1
     4     1    30    1
     5     2     3    2
     6     2    31    1
     7     3     4    1
     8     3    32    1
     9     4     5    1
    10     4    33    1
    11     4    34    1
    12     5     6    1
    13     5     7    1
    14     5     9    1
    15     7     8    1
    16     7    35    1
    17     7    36    1
    18     8    37    1
    19     9    10   am
    20     9    38    1
    21    10    11    2
    22    10    12   am
    23    12    13    1
    24    12    39    1
    25    13    14    1
    26    13    40    1
    27    13    41    1
    28    14    27   ar
    29    14    15   ar
    30    15    16   ar
    31    15    42    1
    32    16    17   ar
    33    16    43    1
    34    17    18   ar
    35    17    44    1
    36    18    19    1
    37    18    27   ar
    38    19    20   am
    39    19    45    1
    40    20    21    2
    41    20    22    1
    42    22    23    1
    43    22    24    1
    44    22    25    1
    45    24    46    1
    46    24    47    1
    47    24    48    1
    48    25    26    1
    49    25    49    1
    50    25    50    1
    51    26    51    1
    52    26    52    1
    53    26    53    1
    54    27    54    1
@<TRIPOS>SUBSTRUCTURE
     1 ZINC000185598309        1 TEMP              0 ****  ****    0 ROOT


##########                                Name:    ZINC000506156755
##########                DOCK_Rotatable_Bonds:                   7
##########                         Heavy_Atoms:                  30
##########                    Molecular_Weight:             400.434
##########                DOCK_Rotatable_Bonds:                   7
##########                       Formal_Charge:          -0.0200001
##########                     HBond_Acceptors:                   6
##########                        HBond_Donors:                   1
##########                         Heavy_Atoms:                  30
##########                          Grid_Score:          -30.822134
##########                     Grid_vdw_energy:          -30.626284
##########                      Grid_es_energy:           -0.195850
##########           Internal_energy_repulsive:           13.837942

@<TRIPOS>MOLECULE
ZINC000506156755
 50 53 1 0 0
SMALL
USER_CHARGES


@<TRIPOS>ATOM
      1 C1          0.8069   -1.3473   48.3803 C.3     1  ZINC000506156755   -0.1600
      2 C2          0.1642    0.0307   48.2113 C.3     1  ZINC000506156755    0.1900
      3 H3         -0.7765    0.0628   48.7609 H       1  ZINC000506156755    0.1000
      4 N4         -0.0915    0.2794   46.7904 N.am    1  ZINC000506156755   -0.7200
      5 C5         -1.2982    0.7276   46.3912 C.2     1  ZINC000506156755    0.5000
      6 O6         -2.1729    0.9236   47.2082 O.2     1  ZINC000506156755   -0.5200
      7 C7         -1.5607    0.9851   44.9298 C.3     1  ZINC000506156755    0.0900
      8 N8         -0.2961    1.2778   44.2507 N.am    1  ZINC000506156755   -0.5600
      9 C9          0.2493    0.5071   43.2923 C.2     1  ZINC000506156755    0.5800
     10 O10        -0.2213   -0.5255   42.8598 O.2     1  ZINC000506156755   -0.4600
     11 C11         1.5169    1.1280   42.8534 C.ar    1  ZINC000506156755   -0.1400
     12 C12         2.4850    0.7950   41.9202 C.ar    1  ZINC000506156755   -0.0400
     13 C13         3.5873    1.6186   41.7495 C.ar    1  ZINC000506156755   -0.0900
     14 C14         3.7261    2.7683   42.5033 C.ar    1  ZINC000506156755   -0.0900
     15 C15         2.7651    3.1143   43.4410 C.ar    1  ZINC000506156755   -0.0400
     16 C16         1.6586    2.3009   43.6226 C.ar    1  ZINC000506156755   -0.1400
     17 C17         0.4696    2.3555   44.4992 C.2     1  ZINC000506156755    0.5800
     18 O18         0.2259    3.2266   45.3096 O.2     1  ZINC000506156755   -0.4600
     19 C19         1.0951    1.0881   48.7468 C.ar    1  ZINC000506156755   -0.1200
     20 C20         2.4302    1.0769   48.3935 C.ar    1  ZINC000506156755   -0.0800
     21 C21         3.2848    2.0471   48.8841 C.ar    1  ZINC000506156755   -0.1400
     22 C22         2.8054    3.0308   49.7291 C.ar    1  ZINC000506156755   -0.0800
     23 C23         1.4708    3.0466   50.0856 C.ar    1  ZINC000506156755   -0.1900
     24 C24         0.6102    2.0775   49.5906 C.ar    1  ZINC000506156755    0.1300
     25 O25        -0.7031    2.0911   49.9394 O.3     1  ZINC000506156755   -0.2500
     26 C26        -1.3431    3.2894   49.9680 C.ar    1  ZINC000506156755    0.0800
     27 C27        -1.2614    4.1472   48.8805 C.ar    1  ZINC000506156755   -0.1400
     28 C28        -1.9130    5.3649   48.9123 C.ar    1  ZINC000506156755   -0.1000
     29 C29        -2.6461    5.7291   50.0266 C.ar    1  ZINC000506156755   -0.1200
     30 C30        -2.7290    4.8762   51.1117 C.ar    1  ZINC000506156755   -0.1000
     31 C31        -2.0841    3.6550   51.0828 C.ar    1  ZINC000506156755   -0.1200
     32 H32         0.1337   -2.1122   47.9930 H       1  ZINC000506156755    0.0700
     33 H33         1.7477   -1.3794   47.8308 H       1  ZINC000506156755    0.0600
     34 H34         0.9972   -1.5324   49.4375 H       1  ZINC000506156755    0.0700
     35 H35         0.6077    0.1215   46.1369 H       1  ZINC000506156755    0.4000
     36 H36        -2.0180    0.1029   44.4818 H       1  ZINC000506156755    0.1300
     37 H37        -2.2343    1.8358   44.8260 H       1  ZINC000506156755    0.1300
     38 H38         2.3819   -0.1026   41.3285 H       1  ZINC000506156755    0.1400
     39 H39         4.3428    1.3596   41.0224 H       1  ZINC000506156755    0.1400
     40 H40         4.5894    3.4016   42.3615 H       1  ZINC000506156755    0.1400
     41 H41         2.8786    4.0143   44.0272 H       1  ZINC000506156755    0.1400
     42 H42         2.8073    0.3094   47.7338 H       1  ZINC000506156755    0.1300
     43 H43         4.3286    2.0362   48.6069 H       1  ZINC000506156755    0.1300
     44 H44         3.4749    3.7872   50.1111 H       1  ZINC000506156755    0.1300
     45 H45         1.0968    3.8150   50.7460 H       1  ZINC000506156755    0.1300
     46 H46        -0.6888    3.8633   48.0100 H       1  ZINC000506156755    0.1300
     47 H47        -1.8495    6.0330   48.0662 H       1  ZINC000506156755    0.1300
     48 H48        -3.1545    6.6818   50.0497 H       1  ZINC000506156755    0.1300
     49 H49        -3.3023    5.1631   51.9810 H       1  ZINC000506156755    0.1300
     50 H50        -2.1495    2.9890   51.9304 H       1  ZINC000506156755    0.1300
@<TRIPOS>BOND
     1     1     2    1
     2     1    32    1
     3     1    33    1
     4     1    34    1
     5     2     3    1
     6     2     4    1
     7     2    19    1
     8     4     5   am
     9     4    35    1
    10     5     6    2
    11     5     7    1
    12     7     8    1
    13     7    36    1
    14     7    37    1
    15     8    17   am
    16     8     9   am
    17     9    10    2
    18     9    11    1
    19    11    16   ar
    20    11    12   ar
    21    12    13   ar
    22    12    38    1
    23    13    14   ar
    24    13    39    1
    25    14    15   ar
    26    14    40    1
    27    15    16   ar
    28    15    41    1
    29    16    17    1
    30    17    18    2
    31    19    24   ar
    32    19    20   ar
    33    20    21   ar
    34    20    42    1
    35    21    22   ar
    36    21    43    1
    37    22    23   ar
    38    22    44    1
    39    23    24   ar
    40    23    45    1
    41    24    25    1
    42    25    26    1
    43    26    31   ar
    44    26    27   ar
    45    27    28   ar
    46    27    46    1
    47    28    29   ar
    48    28    47    1
    49    29    30   ar
    50    29    48    1
    51    30    31   ar
    52    30    49    1
    53    31    50    1
@<TRIPOS>SUBSTRUCTURE
     1 ZINC000506156755        1 TEMP              0 ****  ****    0 ROOT


##########                                Name:    ZINC001386869844
##########                DOCK_Rotatable_Bonds:                   9
##########                         Heavy_Atoms:                  25
##########                    Molecular_Weight:             345.485
##########                DOCK_Rotatable_Bonds:                   9
##########                       Formal_Charge:          -0.0300003
##########                     HBond_Acceptors:                   5
##########                        HBond_Donors:                   2
##########                         Heavy_Atoms:                  25
##########                          Grid_Score:          -30.820423
##########                     Grid_vdw_energy:          -30.719063
##########                      Grid_es_energy:           -0.101360
##########           Internal_energy_repulsive:           32.457401

@<TRIPOS>MOLECULE
ZINC001386869844
 56 58 1 0 0
SMALL
USER_CHARGES


@<TRIPOS>ATOM
      1 C1          0.0403    3.9185   50.2603 C.3     1  ZINC001386869844    0.0600
      2 N2         -1.3272    3.8278   50.7779 N.am    1  ZINC001386869844   -0.6200
      3 C3         -1.6761    4.4783   52.0433 C.3     1  ZINC001386869844    0.1100
      4 C4         -0.9677    3.7641   53.1961 C.3     1  ZINC001386869844    0.1000
      5 N5         -1.9627    3.1157   54.0539 N.am    1  ZINC001386869844   -0.7300
      6 C6         -2.1240    3.5257   55.3277 C.2     1  ZINC001386869844    0.5200
      7 O7         -1.4419    4.4280   55.7652 O.2     1  ZINC001386869844   -0.5300
      8 C8         -3.1475    2.8588   56.2101 C.3     1  ZINC001386869844   -0.1300
      9 C9         -4.4698    3.6239   56.1254 C.3     1  ZINC001386869844   -0.0100
     10 C10        -4.2192    5.1075   56.4025 C.3     1  ZINC001386869844   -0.1500
     11 C11        -5.0652    3.4599   54.7256 C.3     1  ZINC001386869844   -0.1600
     12 C12        -5.4472    3.0691   57.1636 C.3     1  ZINC001386869844   -0.1500
     13 C13        -6.7120    2.3809   56.6462 C.3     1  ZINC001386869844   -0.1900
     14 C14        -6.8043    3.7630   57.2978 C.3     1  ZINC001386869844   -0.1800
     15 C15        -2.2643    3.1460   50.0898 C.2     1  ZINC001386869844    0.5900
     16 O16        -3.4002    3.0706   50.5198 O.2     1  ZINC001386869844   -0.5200
     17 C17        -1.9150    2.4949   48.8227 C.2     1  ZINC001386869844   -0.0600
     18 C18        -1.6240    3.1306   47.6323 C.2     1  ZINC001386869844   -0.0900
     19 C19        -1.3507    2.1363   46.6966 C.2     1  ZINC001386869844   -0.1700
     20 C20        -1.4765    0.9314   47.3137 C.2     1  ZINC001386869844    0.0500
     21 C21        -1.2616   -0.3942   46.6228 C.3     1  ZINC001386869844   -0.0600
     22 C22        -1.3080   -0.1636   45.1077 C.3     1  ZINC001386869844   -0.1100
     23 C23        -0.3779    0.9949   44.7378 C.3     1  ZINC001386869844   -0.1200
     24 C24        -0.9757    2.3124   45.2462 C.3     1  ZINC001386869844   -0.0500
     25 N25        -1.8116    1.1379   48.6063 N.pl3   1  ZINC001386869844   -0.5400
     26 H26         0.5979    3.0275   50.5491 H       1  ZINC001386869844    0.0600
     27 H27         0.0132    3.9937   49.1733 H       1  ZINC001386869844    0.0800
     28 H28         0.5274    4.8017   50.6736 H       1  ZINC001386869844    0.0900
     29 H29        -2.7546    4.4276   52.1925 H       1  ZINC001386869844    0.1000
     30 H30        -1.3618    5.5216   52.0143 H       1  ZINC001386869844    0.0900
     31 H31        -0.4021    4.4899   53.7804 H       1  ZINC001386869844    0.0700
     32 H32        -0.2884    3.0119   52.7950 H       1  ZINC001386869844    0.0700
     33 H33        -2.5054    2.3912   53.7052 H       1  ZINC001386869844    0.4000
     34 H34        -3.2999    1.8320   55.8776 H       1  ZINC001386869844    0.0900
     35 H35        -2.7935    2.8582   57.2409 H       1  ZINC001386869844    0.0900
     36 H36        -3.5228    5.5027   55.6630 H       1  ZINC001386869844    0.0800
     37 H37        -5.1613    5.6525   56.3422 H       1  ZINC001386869844    0.0500
     38 H38        -3.7950    5.2243   57.3998 H       1  ZINC001386869844    0.0500
     39 H39        -5.2437    2.4029   54.5282 H       1  ZINC001386869844    0.0500
     40 H40        -6.0072    4.0049   54.6653 H       1  ZINC001386869844    0.0500
     41 H41        -4.3688    3.8550   53.9861 H       1  ZINC001386869844    0.0800
     42 H42        -4.9934    2.6715   58.0713 H       1  ZINC001386869844    0.1000
     43 H43        -6.8477    2.3234   55.5662 H       1  ZINC001386869844    0.1000
     44 H44        -7.0904    1.5307   57.2137 H       1  ZINC001386869844    0.0900
     45 H45        -7.2433    3.8214   58.2937 H       1  ZINC001386869844    0.0900
     46 H46        -7.0007    4.6146   56.6465 H       1  ZINC001386869844    0.0900
     47 H47        -1.6113    4.1966   47.4595 H       1  ZINC001386869844    0.1500
     48 H48        -0.2897   -0.8006   46.9025 H       1  ZINC001386869844    0.0800
     49 H49        -2.0485   -1.0908   46.9122 H       1  ZINC001386869844    0.0800
     50 H50        -0.9842   -1.0680   44.5926 H       1  ZINC001386869844    0.0700
     51 H51        -2.3275    0.0794   44.8084 H       1  ZINC001386869844    0.0700
     52 H52         0.5984    0.8379   45.1965 H       1  ZINC001386869844    0.0600
     53 H53        -0.2671    1.0403   43.6544 H       1  ZINC001386869844    0.0700
     54 H54        -1.8637    2.5611   44.6650 H       1  ZINC001386869844    0.0700
     55 H55        -0.2392    3.1105   45.1517 H       1  ZINC001386869844    0.0700
     56 H56        -1.9573    0.4462   49.2705 H       1  ZINC001386869844    0.4200
@<TRIPOS>BOND
     1     1     2    1
     2     1    26    1
     3     1    27    1
     4     1    28    1
     5     2     3    1
     6     2    15   am
     7     3     4    1
     8     3    29    1
     9     3    30    1
    10     4     5    1
    11     4    31    1
    12     4    32    1
    13     5     6   am
    14     5    33    1
    15     6     7    2
    16     6     8    1
    17     8     9    1
    18     8    34    1
    19     8    35    1
    20     9    10    1
    21     9    11    1
    22     9    12    1
    23    10    36    1
    24    10    37    1
    25    10    38    1
    26    11    39    1
    27    11    40    1
    28    11    41    1
    29    12    14    1
    30    12    13    1
    31    12    42    1
    32    13    14    1
    33    13    43    1
    34    13    44    1
    35    14    45    1
    36    14    46    1
    37    15    16    2
    38    15    17    1
    39    17    25    1
    40    17    18    2
    41    18    19    1
    42    18    47    1
    43    19    24    1
    44    19    20    2
    45    20    21    1
    46    20    25    1
    47    21    22    1
    48    21    48    1
    49    21    49    1
    50    22    23    1
    51    22    50    1
    52    22    51    1
    53    23    24    1
    54    23    52    1
    55    23    53    1
    56    24    54    1
    57    24    55    1
    58    25    56    1
@<TRIPOS>SUBSTRUCTURE
     1 ZINC001386869844        1 TEMP              0 ****  ****    0 ROOT


##########                                Name:    ZINC000350493047
##########                DOCK_Rotatable_Bonds:                   7
##########                         Heavy_Atoms:                  24
##########                    Molecular_Weight:             330.387
##########                DOCK_Rotatable_Bonds:                   7
##########                       Formal_Charge:          -0.0300002
##########                     HBond_Acceptors:                   7
##########                        HBond_Donors:                   3
##########                         Heavy_Atoms:                  24
##########                          Grid_Score:          -30.791399
##########                     Grid_vdw_energy:          -30.524382
##########                      Grid_es_energy:           -0.267017
##########           Internal_energy_repulsive:           12.174314

@<TRIPOS>MOLECULE
ZINC000350493047
 46 48 1 0 0
SMALL
USER_CHARGES


@<TRIPOS>ATOM
      1 C1         -0.7529   -0.4382   46.0131 C.3     1  <0>        -0.1600
      2 C2         -0.9718    0.8177   45.1672 C.3     1  <0>         0.2600
      3 H3         -1.8248    0.6661   44.5058 H       1  <0>         0.1200
      4 N4          0.2261    1.0822   44.3665 N.am    1  <0>        -0.7400
      5 C5          0.3765    0.4929   43.1638 C.2     1  <0>         0.7100
      6 N6          1.4778    0.7374   42.4264 N.am    1  <0>        -0.8600
      7 O7         -0.4814   -0.2596   42.7439 O.2     1  <0>        -0.5900
      8 C8         -1.2405    1.9924   46.0722 C.2     1  <0>         0.1700
      9 N9         -0.9990    3.2411   45.8014 N.2     1  <0>        -0.3800
     10 O10        -1.3261    3.9483   46.7310 O.3     1  <0>         0.0900
     11 C11        -1.8260    3.1918   47.7207 C.2     1  <0>         0.2400
     12 C12        -2.3359    3.6669   49.0225 C.ar    1  <0>        -0.0800
     13 C13        -2.7981    2.7506   49.9701 C.ar    1  <0>        -0.0200
     14 C14        -3.2730    3.1978   51.1836 C.ar    1  <0>        -0.2200
     15 C15        -3.2930    4.5583   51.4652 C.ar    1  <0>         0.1700
     16 O16        -3.7622    4.9950   52.6621 O.3     1  <0>        -0.3000
     17 C17        -3.5778    4.1313   53.7855 C.3     1  <0>         0.0800
     18 C18        -2.0822    3.9049   54.0146 C.3     1  <0>        -0.1500
     19 C19        -1.8847    2.9802   55.2174 C.3     1  <0>        -0.1200
     20 C20        -2.4996    3.6238   56.4619 C.3     1  <0>        -0.1300
     21 C21        -3.9953    3.8502   56.2328 C.3     1  <0>        -0.1200
     22 C22        -4.1928    4.7749   55.0299 C.3     1  <0>        -0.1200
     23 C23        -2.8337    5.4728   50.5254 C.ar    1  <0>        -0.1600
     24 C24        -2.3518    5.0334   49.3120 C.ar    1  <0>        -0.0300
     25 N25        -1.7777    1.9392   47.3009 N.2     1  <0>        -0.4700
     26 H26         0.1001   -0.2865   46.6746 H       1  <0>         0.0600
     27 H27        -1.6441   -0.6350   46.6089 H       1  <0>         0.0700
     28 H28        -0.5584   -1.2877   45.3585 H       1  <0>         0.0800
     29 H29         0.9111    1.6816   44.7019 H       1  <0>         0.4000
     30 H30         1.5854    0.3141   41.5603 H       1  <0>         0.4000
     31 H31         2.1629    1.3367   42.7618 H       1  <0>         0.4200
     32 H32        -2.7835    1.6930   49.7517 H       1  <0>         0.1400
     33 H33        -3.6306    2.4900   51.9167 H       1  <0>         0.1400
     34 H34        -4.0647    3.1753   53.5926 H       1  <0>         0.0800
     35 H35        -1.6441    3.4464   53.1280 H       1  <0>         0.0700
     36 H36        -1.5953    4.8609   54.2075 H       1  <0>         0.0800
     37 H37        -2.3716    2.0242   55.0246 H       1  <0>         0.0600
     38 H38        -0.8191    2.8189   55.3807 H       1  <0>         0.0700
     39 H39        -2.3589    2.9650   57.3188 H       1  <0>         0.0700
     40 H40        -2.0128    4.5798   56.6548 H       1  <0>         0.0700
     41 H41        -4.4821    2.8942   56.0398 H       1  <0>         0.0700
     42 H42        -4.4333    4.3087   57.1193 H       1  <0>         0.0700
     43 H43        -3.7059    5.7309   55.2228 H       1  <0>         0.0800
     44 H44        -5.2583    4.9362   54.8667 H       1  <0>         0.0700
     45 H45        -2.8506    6.5295   50.7483 H       1  <0>         0.1400
     46 H46        -1.9947    5.7449   48.5822 H       1  <0>         0.1400
@<TRIPOS>BOND
     1     1     2    1
     2     1    26    1
     3     1    27    1
     4     1    28    1
     5     2     3    1
     6     2     4    1
     7     2     8    1
     8     4     5   am
     9     4    29    1
    10     5     6   am
    11     5     7    2
    12     6    30    1
    13     6    31    1
    14     8    25    1
    15     8     9    2
    16     9    10    1
    17    10    11    1
    18    11    12    1
    19    11    25    2
    20    12    24   ar
    21    12    13   ar
    22    13    14   ar
    23    13    32    1
    24    14    15   ar
    25    14    33    1
    26    15    16    1
    27    15    23   ar
    28    16    17    1
    29    17    22    1
    30    17    18    1
    31    17    34    1
    32    18    19    1
    33    18    35    1
    34    18    36    1
    35    19    20    1
    36    19    37    1
    37    19    38    1
    38    20    21    1
    39    20    39    1
    40    20    40    1
    41    21    22    1
    42    21    41    1
    43    21    42    1
    44    22    43    1
    45    22    44    1
    46    23    24   ar
    47    23    45    1
    48    24    46    1
@<TRIPOS>SUBSTRUCTURE
     1 <0>         1 TEMP              0 ****  ****    0 ROOT


##########                                Name:    ZINC001070580102
##########                DOCK_Rotatable_Bonds:                   8
##########                         Heavy_Atoms:                  25
##########                    Molecular_Weight:              349.39
##########                DOCK_Rotatable_Bonds:                   8
##########                       Formal_Charge:          -0.0100003
##########                     HBond_Acceptors:                   9
##########                        HBond_Donors:                   3
##########                         Heavy_Atoms:                  25
##########                          Grid_Score:          -30.777422
##########                     Grid_vdw_energy:          -29.499086
##########                      Grid_es_energy:           -1.278335
##########           Internal_energy_repulsive:           14.452272

@<TRIPOS>MOLECULE
ZINC001070580102
 48 50 1 0 0
SMALL
USER_CHARGES


@<TRIPOS>ATOM
      1 C1          4.6489    7.2856   44.4031 C.3     1  ZINC001070580102   -0.0800
      2 C2          4.5337    5.8234   44.7492 C.2     1  ZINC001070580102   -0.0100
      3 C3          3.7838    4.9253   44.0924 C.2     1  ZINC001070580102   -0.1900
      4 C4          3.9881    3.6445   44.7849 C.2     1  ZINC001070580102   -0.2500
      5 C5          3.3835    2.3433   44.4483 C.2     1  ZINC001070580102    0.6000
      6 O6          3.6460    1.3604   45.1144 O.2     1  ZINC001070580102   -0.5300
      7 N7          2.5395    2.2429   43.4022 N.am    1  ZINC001070580102   -0.7200
      8 C8          1.9399    0.9491   43.0666 C.3     1  ZINC001070580102    0.2000
      9 C9          0.6193    0.8075   43.7787 C.2     1  ZINC001070580102    0.2600
     10 N10         0.3191    1.3115   44.9482 N.2     1  ZINC001070580102   -0.5100
     11 C11        -0.9329    0.9899   45.2710 C.2     1  ZINC001070580102    0.2300
     12 C12        -1.6395    1.3881   46.5410 C.3     1  ZINC001070580102    0.1400
     13 H13        -2.6756    1.0518   46.5020 H       1  ZINC001070580102    0.0800
     14 C14        -1.6018    2.9113   46.6911 C.3     1  ZINC001070580102    0.0800
     15 O15        -2.2071    3.2780   47.9337 O.3     1  ZINC001070580102   -0.3800
     16 C16        -1.5751    2.6949   49.0765 C.3     1  ZINC001070580102    0.0600
     17 C17        -1.6125    1.1695   48.9506 C.3     1  ZINC001070580102    0.0200
     18 N18        -0.9658    0.7699   47.6922 N.3     1  ZINC001070580102   -0.5200
     19 C19        -0.9305   -0.6928   47.5599 C.3     1  ZINC001070580102    0.0600
     20 C20        -0.0946   -1.2874   48.6950 C.3     1  ZINC001070580102    0.0800
     21 O21         0.2226   -2.6472   48.3910 O.3     1  ZINC001070580102   -0.5700
     22 N22        -1.4491    0.2737   44.3071 N.2     1  ZINC001070580102   -0.2700
     23 N23        -0.4577    0.1464   43.3205 N.pl3   1  ZINC001070580102   -0.4700
     24 C24         4.8550    3.9122   45.8037 C.2     1  ZINC001070580102    0.0900
     25 C25         5.3747    2.9125   46.8044 C.3     1  ZINC001070580102   -0.0900
     26 O26         5.1691    5.2105   45.7601 O.3     1  ZINC001070580102   -0.1700
     27 H27         5.3295    7.7719   45.1020 H       1  ZINC001070580102    0.0800
     28 H28         5.0343    7.3896   43.3888 H       1  ZINC001070580102    0.0900
     29 H29         3.6664    7.7529   44.4682 H       1  ZINC001070580102    0.0900
     30 H30         3.1577    5.1062   43.2312 H       1  ZINC001070580102    0.1500
     31 H31         2.3293    3.0271   42.8716 H       1  ZINC001070580102    0.4000
     32 H32         1.7802    0.8910   41.9899 H       1  ZINC001070580102    0.1000
     33 H33         2.6087    0.1468   43.3784 H       1  ZINC001070580102    0.1100
     34 H34        -0.5669    3.2530   46.6756 H       1  ZINC001070580102    0.0700
     35 H35        -2.1502    3.3717   45.8691 H       1  ZINC001070580102    0.1000
     36 H36        -0.5394    3.0303   49.1302 H       1  ZINC001070580102    0.0600
     37 H37        -2.1041    2.9986   49.9797 H       1  ZINC001070580102    0.1000
     38 H38        -1.0817    0.7219   49.7908 H       1  ZINC001070580102    0.1200
     39 H39        -2.6482    0.8297   48.9508 H       1  ZINC001070580102    0.0400
     40 H40        -1.9454   -1.0869   47.6111 H       1  ZINC001070580102    0.0500
     41 H41        -0.4847   -0.9602   46.6018 H       1  ZINC001070580102    0.0800
     42 H42         0.8266   -0.7155   48.8060 H       1  ZINC001070580102    0.0500
     43 H43        -0.6623   -1.2458   49.6246 H       1  ZINC001070580102    0.0600
     44 H44         0.7286   -2.7601   47.5747 H       1  ZINC001070580102    0.3800
     45 H45        -0.5331   -0.3296   42.4786 H       1  ZINC001070580102    0.4400
     46 H46         6.2928    2.4633   46.4259 H       1  ZINC001070580102    0.0900
     47 H47         5.5795    3.4167   47.7489 H       1  ZINC001070580102    0.0800
     48 H48         4.6278    2.1346   46.9624 H       1  ZINC001070580102    0.1100
@<TRIPOS>BOND
     1     1     2    1
     2     1    27    1
     3     1    28    1
     4     1    29    1
     5     2    26    1
     6     2     3    2
     7     3     4    1
     8     3    30    1
     9     4     5    1
    10     4    24    2
    11     5     6    2
    12     5     7   am
    13     7     8    1
    14     7    31    1
    15     8     9    1
    16     8    32    1
    17     8    33    1
    18     9    23    1
    19     9    10    2
    20    10    11    1
    21    11    12    1
    22    11    22    2
    23    12    13    1
    24    12    18    1
    25    12    14    1
    26    14    15    1
    27    14    34    1
    28    14    35    1
    29    15    16    1
    30    16    17    1
    31    16    36    1
    32    16    37    1
    33    17    18    1
    34    17    38    1
    35    17    39    1
    36    18    19    1
    37    19    20    1
    38    19    40    1
    39    19    41    1
    40    20    21    1
    41    20    42    1
    42    20    43    1
    43    21    44    1
    44    22    23    1
    45    23    45    1
    46    24    25    1
    47    24    26    1
    48    25    46    1
    49    25    47    1
    50    25    48    1
@<TRIPOS>SUBSTRUCTURE
     1 ZINC001070580102        1 TEMP              0 ****  ****    0 ROOT


##########                                Name:    ZINC000409064708
##########                DOCK_Rotatable_Bonds:                   8
##########                         Heavy_Atoms:                  29
##########                    Molecular_Weight:             415.442
##########                DOCK_Rotatable_Bonds:                   8
##########                       Formal_Charge:                0.03
##########                     HBond_Acceptors:                   8
##########                        HBond_Donors:                   0
##########                         Heavy_Atoms:                  29
##########                          Grid_Score:          -30.763000
##########                     Grid_vdw_energy:          -29.510719
##########                      Grid_es_energy:           -1.252282
##########           Internal_energy_repulsive:           21.734430

@<TRIPOS>MOLECULE
ZINC000409064708
 47 49 1 0 0
SMALL
USER_CHARGES


@<TRIPOS>ATOM
      1 C1         -0.0706   -1.6731   48.5572 C.3     1  ZINC000409064708    0.0400
      2 O2         -1.2494   -1.0811   47.9503 O.3     1  ZINC000409064708   -0.3500
      3 C3         -1.0677   -0.3887   46.8149 C.2     1  ZINC000409064708    0.4600
      4 O4         -1.6447   -0.7199   45.8063 O.2     1  ZINC000409064708   -0.4900
      5 C5         -0.1439    0.8018   46.7980 C.3     1  ZINC000409064708    0.1400
      6 H6          0.8889    0.4594   46.7324 H       1  ZINC000409064708    0.1500
      7 C7         -0.4674    1.6813   45.5887 C.3     1  ZINC000409064708   -0.1600
      8 N8         -0.3240    1.5772   48.0279 N.am    1  ZINC000409064708   -0.5600
      9 C9         -1.5498    1.9428   48.4205 C.2     1  ZINC000409064708    0.5400
     10 O10        -2.5961    1.6976   47.8509 O.2     1  ZINC000409064708   -0.4200
     11 S11        -1.3573    2.8517   49.9297 S.3     1  ZINC000409064708   -0.0100
     12 C12         0.4103    2.6944   49.9651 C.2     1  ZINC000409064708   -0.2400
     13 C13         1.2731    3.1781   50.8943 C.2     1  ZINC000409064708    0.0900
     14 C14         0.7643    3.9364   52.0442 C.ar    1  ZINC000409064708   -0.1400
     15 C15         0.7290    3.3475   53.3143 C.ar    1  ZINC000409064708    0.0000
     16 C16         0.2509    4.0631   54.3889 C.ar    1  ZINC000409064708   -0.1600
     17 C17        -0.1967    5.3676   54.2148 C.ar    1  ZINC000409064708    0.1600
     18 O18        -0.6671    6.0687   55.2780 O.3     1  ZINC000409064708   -0.3000
     19 C19        -1.2348    5.3157   56.3518 C.3     1  ZINC000409064708    0.1000
     20 C20        -2.3471    4.4472   55.8232 C.ar    1  ZINC000409064708   -0.0700
     21 C21        -2.3770    3.0999   56.1302 C.ar    1  ZINC000409064708   -0.1000
     22 C22        -3.3969    2.3017   55.6459 C.ar    1  ZINC000409064708   -0.0900
     23 C23        -4.3876    2.8504   54.8543 C.ar    1  ZINC000409064708   -0.1400
     24 C24        -4.3591    4.2003   54.5464 C.ar    1  ZINC000409064708    0.1000
     25 F25        -5.3272    4.7378   53.7724 F       1  ZINC000409064708   -0.1400
     26 C26        -3.3402    4.9994   55.0362 C.ar    1  ZINC000409064708   -0.1300
     27 C27        -0.1640    5.9571   52.9563 C.ar    1  ZINC000409064708   -0.2200
     28 C28         0.3178    5.2531   51.8759 C.ar    1  ZINC000409064708   -0.0400
     29 C29         0.7232    1.9161   48.7611 C.2     1  ZINC000409064708    0.5600
     30 O30         1.8614    1.6115   48.4565 O.2     1  ZINC000409064708   -0.4600
     31 H31         0.3857   -2.3731   47.8572 H       1  ZINC000409064708    0.0700
     32 H32         0.6443   -0.8882   48.8039 H       1  ZINC000409064708    0.0700
     33 H33        -0.3568   -2.2027   49.4659 H       1  ZINC000409064708    0.1100
     34 H34        -0.3333    1.1045   44.6736 H       1  ZINC000409064708    0.1000
     35 H35        -1.5001    2.0237   45.6542 H       1  ZINC000409064708    0.0800
     36 H36         0.2007    2.5425   45.5765 H       1  ZINC000409064708    0.0800
     37 H37         2.3339    3.0054   50.7880 H       1  ZINC000409064708    0.1600
     38 H38         1.0758    2.3339   53.4504 H       1  ZINC000409064708    0.1300
     39 H39         0.2234    3.6100   55.3688 H       1  ZINC000409064708    0.1400
     40 H40        -0.4658    4.6877   56.8014 H       1  ZINC000409064708    0.0800
     41 H41        -1.6324    5.9978   57.1033 H       1  ZINC000409064708    0.0800
     42 H42        -1.6028    2.6701   56.7486 H       1  ZINC000409064708    0.1300
     43 H43        -3.4190    1.2491   55.8861 H       1  ZINC000409064708    0.1400
     44 H44        -5.1839    2.2267   54.4754 H       1  ZINC000409064708    0.1400
     45 H45        -3.3171    6.0523   54.7970 H       1  ZINC000409064708    0.1400
     46 H46        -0.5133    6.9708   52.8267 H       1  ZINC000409064708    0.1300
     47 H47         0.3429    5.7120   50.8986 H       1  ZINC000409064708    0.1300
@<TRIPOS>BOND
     1     1     2    1
     2     1    31    1
     3     1    32    1
     4     1    33    1
     5     2     3    1
     6     3     4    2
     7     3     5    1
     8     5     6    1
     9     5     7    1
    10     5     8    1
    11     7    34    1
    12     7    35    1
    13     7    36    1
    14     8    29   am
    15     8     9   am
    16     9    10    2
    17     9    11    1
    18    11    12    1
    19    12    13    2
    20    12    29    1
    21    13    14    1
    22    13    37    1
    23    14    28   ar
    24    14    15   ar
    25    15    16   ar
    26    15    38    1
    27    16    17   ar
    28    16    39    1
    29    17    18    1
    30    17    27   ar
    31    18    19    1
    32    19    20    1
    33    19    40    1
    34    19    41    1
    35    20    26   ar
    36    20    21   ar
    37    21    22   ar
    38    21    42    1
    39    22    23   ar
    40    22    43    1
    41    23    24   ar
    42    23    44    1
    43    24    25    1
    44    24    26   ar
    45    26    45    1
    46    27    28   ar
    47    27    46    1
    48    28    47    1
    49    29    30    2
@<TRIPOS>SUBSTRUCTURE
     1 ZINC000409064708        1 TEMP              0 ****  ****    0 ROOT


##########                                Name:    ZINC000864730443
##########                DOCK_Rotatable_Bonds:                  10
##########                         Heavy_Atoms:                  25
##########                    Molecular_Weight:             356.462
##########                DOCK_Rotatable_Bonds:                  10
##########                       Formal_Charge:           0.0299988
##########                     HBond_Acceptors:                   7
##########                        HBond_Donors:                   2
##########                         Heavy_Atoms:                  25
##########                          Grid_Score:          -30.756914
##########                     Grid_vdw_energy:          -28.593414
##########                      Grid_es_energy:           -2.163501
##########           Internal_energy_repulsive:           18.152235

@<TRIPOS>MOLECULE
ZINC000864730443
 57 58 1 0 0
SMALL
USER_CHARGES


@<TRIPOS>ATOM
      1 C1        -14.8233   -2.8331   61.3101 C.3     1  ZINC000864730443   -0.1800
      2 C2        -13.6024   -2.0691   60.7938 C.3     1  ZINC000864730443    0.1400
      3 C3        -13.4054   -2.3678   59.3062 C.3     1  ZINC000864730443   -0.1800
      4 C4        -13.8211   -0.5673   60.9877 C.3     1  ZINC000864730443   -0.1400
      5 O5        -12.4232   -2.4857   61.5314 O.3     1  ZINC000864730443   -0.3600
      6 C6        -11.2521   -2.4777   60.8672 C.2     1  ZINC000864730443    0.6500
      7 O7        -10.8200   -3.5061   60.3852 O.2     1  ZINC000864730443   -0.5700
      8 N8        -10.5592   -1.3292   60.7369 N.am    1  ZINC000864730443   -0.7100
      9 C9         -9.2840   -1.3208   60.0156 C.3     1  ZINC000864730443    0.1500
     10 C10        -8.7596    0.1136   59.9236 C.3     1  ZINC000864730443   -0.1300
     11 C11        -8.4372    0.6216   61.3052 C.2     1  ZINC000864730443    0.5300
     12 O12        -9.0063    1.6008   61.7392 O.2     1  ZINC000864730443   -0.5300
     13 N13        -7.5166   -0.0119   62.0584 N.am    1  ZINC000864730443   -0.7200
     14 C14        -7.2032    0.4820   63.4015 C.3     1  ZINC000864730443    0.1200
     15 C15        -8.0465   -0.2719   64.4318 C.3     1  ZINC000864730443   -0.1300
     16 C16        -7.5536    0.0664   65.8401 C.3     1  ZINC000864730443    0.0800
     17 H17        -6.4992   -0.1901   65.9431 H       1  ZINC000864730443    0.0800
     18 C18        -7.7728    1.5708   66.1398 C.3     1  ZINC000864730443   -0.1500
     19 C19        -7.8427    1.5552   67.6912 C.3     1  ZINC000864730443   -0.1600
     20 C20        -8.5263    0.2002   67.9748 C.3     1  ZINC000864730443    0.0500
     21 O21        -8.3348   -0.6317   66.8229 O.3     1  ZINC000864730443   -0.3800
     22 C22        -7.4959    0.1421   59.0584 C.3     1  ZINC000864730443   -0.1000
     23 C23        -7.0250    1.5920   58.9093 C.3     1  ZINC000864730443   -0.1600
     24 C24        -8.1581    2.4293   58.3104 C.3     1  ZINC000864730443    0.0600
     25 O25        -9.3124    2.3345   59.1474 O.3     1  ZINC000864730443   -0.3700
     26 C26        -9.8257    1.0080   59.2854 C.3     1  ZINC000864730443    0.0800
     27 H27       -14.6676   -3.9030   61.1718 H       1  ZINC000864730443    0.0900
     28 H28       -14.9637   -2.6203   62.3698 H       1  ZINC000864730443    0.0600
     29 H29       -15.7085   -2.5203   60.7563 H       1  ZINC000864730443    0.0700
     30 H30       -14.2906   -2.0550   58.7525 H       1  ZINC000864730443    0.0700
     31 H31       -12.5356   -1.8234   58.9385 H       1  ZINC000864730443    0.0600
     32 H32       -13.2496   -3.4377   59.1681 H       1  ZINC000864730443    0.0900
     33 H33       -13.9615   -0.3544   62.0476 H       1  ZINC000864730443    0.0700
     34 H34       -12.9513   -0.0229   60.6199 H       1  ZINC000864730443    0.0700
     35 H35       -14.7063   -0.2545   60.4340 H       1  ZINC000864730443    0.0800
     36 H36       -10.9047   -0.5080   61.1207 H       1  ZINC000864730443    0.4100
     37 H37        -8.5611   -1.9385   60.5485 H       1  ZINC000864730443    0.0900
     38 H38        -9.4319   -1.7187   59.0117 H       1  ZINC000864730443    0.0800
     39 H39        -7.0615   -0.7951   61.7112 H       1  ZINC000864730443    0.4000
     40 H40        -6.1454    0.3212   63.6100 H       1  ZINC000864730443    0.0700
     41 H41        -7.4268    1.5473   63.4583 H       1  ZINC000864730443    0.0700
     42 H42        -9.0911    0.0228   64.3318 H       1  ZINC000864730443    0.0800
     43 H43        -7.9538   -1.3446   64.2623 H       1  ZINC000864730443    0.0800
     44 H44        -6.9305    2.1677   65.7904 H       1  ZINC000864730443    0.0900
     45 H45        -8.7089    1.9250   65.7080 H       1  ZINC000864730443    0.0800
     46 H46        -6.8432    1.5837   68.1249 H       1  ZINC000864730443    0.0800
     47 H47        -8.4507    2.3811   68.0604 H       1  ZINC000864730443    0.0800
     48 H48        -8.0707   -0.2682   68.8473 H       1  ZINC000864730443    0.0700
     49 H49        -9.5913    0.3527   68.1492 H       1  ZINC000864730443    0.0700
     50 H50        -6.7137   -0.4481   59.5359 H       1  ZINC000864730443    0.0800
     51 H51        -7.7179   -0.2722   58.0748 H       1  ZINC000864730443    0.0800
     52 H52        -6.7559    1.9899   59.8877 H       1  ZINC000864730443    0.0900
     53 H53        -6.1579    1.6274   58.2497 H       1  ZINC000864730443    0.0800
     54 H54        -7.8434    3.4706   58.2417 H       1  ZINC000864730443    0.1000
     55 H55        -8.3991    2.0558   57.3152 H       1  ZINC000864730443    0.0500
     56 H56       -10.0886    0.6160   58.3028 H       1  ZINC000864730443    0.0700
     57 H57       -10.7124    1.0255   59.9190 H       1  ZINC000864730443    0.1000
@<TRIPOS>BOND
     1     1     2    1
     2     1    27    1
     3     1    28    1
     4     1    29    1
     5     2     3    1
     6     2     4    1
     7     2     5    1
     8     3    30    1
     9     3    31    1
    10     3    32    1
    11     4    33    1
    12     4    34    1
    13     4    35    1
    14     5     6    1
    15     6     7    2
    16     6     8   am
    17     8     9    1
    18     8    36    1
    19     9    10    1
    20     9    37    1
    21     9    38    1
    22    10    26    1
    23    10    11    1
    24    10    22    1
    25    11    12    2
    26    11    13   am
    27    13    14    1
    28    13    39    1
    29    14    15    1
    30    14    40    1
    31    14    41    1
    32    15    16    1
    33    15    42    1
    34    15    43    1
    35    16    17    1
    36    16    21    1
    37    16    18    1
    38    18    19    1
    39    18    44    1
    40    18    45    1
    41    19    20    1
    42    19    46    1
    43    19    47    1
    44    20    21    1
    45    20    48    1
    46    20    49    1
    47    22    23    1
    48    22    50    1
    49    22    51    1
    50    23    24    1
    51    23    52    1
    52    23    53    1
    53    24    25    1
    54    24    54    1
    55    24    55    1
    56    25    26    1
    57    26    56    1
    58    26    57    1
@<TRIPOS>SUBSTRUCTURE
     1 ZINC000864730443        1 TEMP              0 ****  ****    0 ROOT


##########                                Name:    ZINC000653668607
##########                DOCK_Rotatable_Bonds:                   5
##########                         Heavy_Atoms:                  28
##########                    Molecular_Weight:             379.459
##########                DOCK_Rotatable_Bonds:                   5
##########                       Formal_Charge:          0.00999918
##########                     HBond_Acceptors:                   6
##########                        HBond_Donors:                   2
##########                         Heavy_Atoms:                  28
##########                          Grid_Score:          -30.753704
##########                     Grid_vdw_energy:          -30.472277
##########                      Grid_es_energy:           -0.281428
##########           Internal_energy_repulsive:            6.827742

@<TRIPOS>MOLECULE
ZINC000653668607
 53 56 1 0 0
SMALL
USER_CHARGES


@<TRIPOS>ATOM
      1 C1         -9.1577   -0.6907   52.8688 C.3     1  ZINC000653668607    0.0300
      2 O2         -9.8991    0.2095   53.6946 O.3     1  ZINC000653668607   -0.3200
      3 C3         -9.1954    1.1770   54.3393 C.ar    1  ZINC000653668607    0.1300
      4 C4         -8.9699    2.4008   53.7262 C.ar    1  ZINC000653668607   -0.2000
      5 C5         -8.2572    3.3767   54.3901 C.ar    1  ZINC000653668607   -0.0800
      6 C6         -7.7625    3.1462   55.6675 C.ar    1  ZINC000653668607   -0.1000
      7 C7         -7.0057    4.2634   56.3375 C.3     1  ZINC000653668607   -0.0800
      8 C8         -6.1808    3.7282   57.5061 C.3     1  ZINC000653668607   -0.1200
      9 C9         -7.0994    2.8895   58.4027 C.3     1  ZINC000653668607   -0.1100
     10 C10        -7.4646    1.6091   57.6547 C.3     1  ZINC000653668607   -0.0600
     11 H11        -6.5802    0.9777   57.5698 H       1  ZINC000653668607    0.1000
     12 C12        -8.5300    0.8711   58.4237 C.2     1  ZINC000653668607    0.5200
     13 O13        -9.4668    1.4786   58.8974 O.2     1  ZINC000653668607   -0.5100
     14 N14        -8.4418   -0.4641   58.5851 N.am    1  ZINC000653668607   -0.6700
     15 C15        -9.4309   -1.1493   59.2991 C.ar    1  ZINC000653668607    0.1500
     16 C16        -9.3848   -1.1896   60.6868 C.ar    1  ZINC000653668607   -0.1100
     17 C17       -10.3613   -1.8662   61.3926 C.ar    1  ZINC000653668607   -0.0900
     18 C18       -11.3859   -2.5045   60.7212 C.ar    1  ZINC000653668607   -0.1200
     19 C19       -11.4374   -2.4683   59.3332 C.ar    1  ZINC000653668607    0.1700
     20 N20       -12.4756   -3.1156   58.6536 N.am    1  ZINC000653668607   -0.5800
     21 C21       -13.7550   -2.4270   58.4758 C.3     1  ZINC000653668607    0.1100
     22 C22       -14.4202   -2.9266   57.1889 C.3     1  ZINC000653668607   -0.1500
     23 C23       -14.5450   -4.4520   57.2646 C.3     1  ZINC000653668607    0.1100
     24 N24       -13.2227   -5.0306   57.5081 N.am    1  ZINC000653668607   -0.7400
     25 C25       -12.2761   -4.3522   58.1737 C.2     1  ZINC000653668607    0.7100
     26 O26       -11.1979   -4.8831   58.3580 O.2     1  ZINC000653668607   -0.5800
     27 C27       -10.4622   -1.7846   58.6219 C.ar    1  ZINC000653668607   -0.1300
     28 C28        -7.9803    1.9297   56.2761 C.ar    1  ZINC000653668607   -0.0300
     29 C29        -8.7044    0.9484   55.6136 C.ar    1  ZINC000653668607   -0.1500
     30 H30        -8.6473   -0.1291   52.0863 H       1  ZINC000653668607    0.0600
     31 H31        -8.4223   -1.2187   53.4757 H       1  ZINC000653668607    0.0600
     32 H32        -9.8381   -1.4108   52.4142 H       1  ZINC000653668607    0.1000
     33 H33        -9.3505    2.5882   52.7331 H       1  ZINC000653668607    0.1300
     34 H34        -8.0817    4.3293   53.9124 H       1  ZINC000653668607    0.1300
     35 H35        -6.3400    4.7319   55.6125 H       1  ZINC000653668607    0.0800
     36 H36        -7.7132    5.0056   56.7071 H       1  ZINC000653668607    0.0800
     37 H37        -5.3692    3.1064   57.1283 H       1  ZINC000653668607    0.0700
     38 H38        -5.7705    4.5608   58.0775 H       1  ZINC000653668607    0.0800
     39 H39        -6.5802    2.6389   59.3279 H       1  ZINC000653668607    0.0700
     40 H40        -8.0045    3.4528   58.6301 H       1  ZINC000653668607    0.0800
     41 H41        -7.6926   -0.9500   58.2062 H       1  ZINC000653668607    0.4100
     42 H42        -8.5848   -0.6919   61.2146 H       1  ZINC000653668607    0.1400
     43 H43       -10.3230   -1.8964   62.4715 H       1  ZINC000653668607    0.1300
     44 H44       -12.1476   -3.0325   61.2756 H       1  ZINC000653668607    0.1200
     45 H45       -14.4033   -2.6377   59.3263 H       1  ZINC000653668607    0.0700
     46 H46       -13.5838   -1.3530   58.4041 H       1  ZINC000653668607    0.0900
     47 H47       -15.4109   -2.4825   57.0927 H       1  ZINC000653668607    0.1000
     48 H48       -13.8080   -2.6516   56.3298 H       1  ZINC000653668607    0.0800
     49 H49       -15.2167   -4.7225   58.0792 H       1  ZINC000653668607    0.0700
     50 H50       -14.9413   -4.8323   56.3230 H       1  ZINC000653668607    0.0900
     51 H51       -13.0256   -5.9213   57.1781 H       1  ZINC000653668607    0.4200
     52 H52       -10.5003   -1.7549   57.5431 H       1  ZINC000653668607    0.1300
     53 H53        -8.8821   -0.0025   56.0938 H       1  ZINC000653668607    0.1200
@<TRIPOS>BOND
     1     1     2    1
     2     1    30    1
     3     1    31    1
     4     1    32    1
     5     2     3    1
     6     3    29   ar
     7     3     4   ar
     8     4     5   ar
     9     4    33    1
    10     5     6   ar
    11     5    34    1
    12     6    28   ar
    13     6     7    1
    14     7     8    1
    15     7    35    1
    16     7    36    1
    17     8     9    1
    18     8    37    1
    19     8    38    1
    20     9    10    1
    21     9    39    1
    22     9    40    1
    23    10    11    1
    24    10    12    1
    25    10    28    1
    26    12    13    2
    27    12    14   am
    28    14    15    1
    29    14    41    1
    30    15    27   ar
    31    15    16   ar
    32    16    17   ar
    33    16    42    1
    34    17    18   ar
    35    17    43    1
    36    18    19   ar
    37    18    44    1
    38    19    20    1
    39    19    27   ar
    40    20    25   am
    41    20    21    1
    42    21    22    1
    43    21    45    1
    44    21    46    1
    45    22    23    1
    46    22    47    1
    47    22    48    1
    48    23    24    1
    49    23    49    1
    50    23    50    1
    51    24    25   am
    52    24    51    1
    53    25    26    2
    54    27    52    1
    55    28    29   ar
    56    29    53    1
@<TRIPOS>SUBSTRUCTURE
     1 ZINC000653668607        1 TEMP              0 ****  ****    0 ROOT


##########                                Name:    ZINC000805177769
##########                DOCK_Rotatable_Bonds:                  10
##########                         Heavy_Atoms:                  30
##########                    Molecular_Weight:             417.548
##########                DOCK_Rotatable_Bonds:                  10
##########                       Formal_Charge:           0.0199995
##########                     HBond_Acceptors:                   7
##########                        HBond_Donors:                   1
##########                         Heavy_Atoms:                  30
##########                          Grid_Score:          -30.745821
##########                     Grid_vdw_energy:          -31.813932
##########                      Grid_es_energy:            1.068112
##########           Internal_energy_repulsive:           36.515388

@<TRIPOS>MOLECULE
ZINC000805177769
 65 66 1 0 0
SMALL
USER_CHARGES


@<TRIPOS>ATOM
      1 C1        -14.2207   -4.8946   56.9470 C.3     1  ZINC000805177769   -0.1200
      2 C2        -13.9273   -3.7322   57.8603 C.ar    1  ZINC000805177769   -0.0800
      3 C3        -13.0551   -2.7391   57.4563 C.ar    1  ZINC000805177769   -0.1200
      4 C4        -12.7859   -1.6727   58.2942 C.ar    1  ZINC000805177769   -0.1100
      5 C5        -13.3892   -1.5997   59.5355 C.ar    1  ZINC000805177769   -0.0900
      6 C6        -13.0954   -0.4376   60.4489 C.3     1  ZINC000805177769   -0.0900
      7 C7        -11.9534   -0.8099   61.3966 C.3     1  ZINC000805177769    0.1500
      8 H8        -11.8343   -1.8933   61.4141 H       1  ZINC000805177769    0.1000
      9 C9        -12.2766   -0.3097   62.8059 C.3     1  ZINC000805177769   -0.1700
     10 N10       -10.7106   -0.1895   60.9312 N.am    1  ZINC000805177769   -0.6900
     11 C11        -9.5964   -0.9349   60.7915 C.2     1  ZINC000805177769    0.5100
     12 O12        -9.6223   -2.1196   61.0528 O.2     1  ZINC000805177769   -0.5100
     13 C13        -8.3291   -0.3022   60.3150 C.2     1  ZINC000805177769    0.5200
     14 O14        -7.2867   -0.5184   60.8973 O.2     1  ZINC000805177769   -0.5200
     15 N15        -8.3440    0.5085   59.2384 N.am    1  ZINC000805177769   -0.5900
     16 C16        -7.1761    1.1930   58.6650 C.3     1  ZINC000805177769    0.1100
     17 C17        -7.6669    1.9829   57.4334 C.3     1  ZINC000805177769   -0.1500
     18 C18        -8.9778    1.2473   57.0487 C.3     1  ZINC000805177769    0.1500
     19 H19        -8.7674    0.3622   56.4484 H       1  ZINC000805177769    0.1200
     20 N20        -9.8985    2.1466   56.3488 N.am    1  ZINC000805177769   -0.5900
     21 C21       -10.1881    3.4727   56.9001 C.3     1  ZINC000805177769    0.0800
     22 C22       -10.4792    1.7540   55.1977 C.2     1  ZINC000805177769    0.6600
     23 O23       -11.2441    2.4992   54.6179 O.2     1  ZINC000805177769   -0.5600
     24 O24       -10.2119    0.5358   54.6902 O.3     1  ZINC000805177769   -0.3600
     25 C25        -9.9154    0.4637   53.2706 C.3     1  ZINC000805177769    0.1400
     26 C26        -9.1088    1.6957   52.8548 C.3     1  ZINC000805177769   -0.1800
     27 C27        -9.1015   -0.7995   52.9832 C.3     1  ZINC000805177769   -0.1400
     28 C28       -11.2233    0.4191   52.4780 C.3     1  ZINC000805177769   -0.1800
     29 C29        -9.5331    0.8506   58.4370 C.3     1  ZINC000805177769    0.0900
     30 C30       -14.2628   -2.5924   59.9390 C.ar    1  ZINC000805177769   -0.0800
     31 C31       -14.9210   -2.5126   61.2923 C.3     1  ZINC000805177769   -0.1200
     32 C32       -14.5349   -3.6565   59.0999 C.ar    1  ZINC000805177769   -0.1200
     33 H33       -15.0727   -4.6516   56.3120 H       1  ZINC000805177769    0.0700
     34 H34       -13.3492   -5.0963   56.3242 H       1  ZINC000805177769    0.0700
     35 H35       -14.4525   -5.7764   57.5443 H       1  ZINC000805177769    0.0700
     36 H36       -12.5836   -2.7961   56.4863 H       1  ZINC000805177769    0.1200
     37 H37       -12.1038   -0.8970   57.9787 H       1  ZINC000805177769    0.1200
     38 H38       -12.8058    0.4283   59.8536 H       1  ZINC000805177769    0.0800
     39 H39       -13.9861   -0.1977   61.0297 H       1  ZINC000805177769    0.0900
     40 H40       -12.3957    0.7737   62.7884 H       1  ZINC000805177769    0.0600
     41 H41       -13.2013   -0.7714   63.1522 H       1  ZINC000805177769    0.0700
     42 H42       -11.4630   -0.5749   63.4811 H       1  ZINC000805177769    0.0600
     43 H43       -10.6896    0.7578   60.7235 H       1  ZINC000805177769    0.4100
     44 H44        -6.7503    1.8775   59.3988 H       1  ZINC000805177769    0.0900
     45 H45        -6.4288    0.4599   58.3615 H       1  ZINC000805177769    0.0900
     46 H46        -7.8701    3.0208   57.6968 H       1  ZINC000805177769    0.0900
     47 H47        -6.9401    1.9246   56.6232 H       1  ZINC000805177769    0.0900
     48 H48        -9.4726    4.1943   56.5058 H       1  ZINC000805177769    0.0600
     49 H49       -11.1978    3.7709   56.6180 H       1  ZINC000805177769    0.0800
     50 H50       -10.1092    3.4395   57.9868 H       1  ZINC000805177769    0.0800
     51 H51        -8.1770    1.7275   53.4196 H       1  ZINC000805177769    0.0600
     52 H52        -8.8862    1.6415   51.7892 H       1  ZINC000805177769    0.0700
     53 H53        -9.6886    2.5957   53.0596 H       1  ZINC000805177769    0.0900
     54 H54        -9.6760   -1.6771   53.2794 H       1  ZINC000805177769    0.0700
     55 H55        -8.8788   -0.8536   51.9176 H       1  ZINC000805177769    0.0800
     56 H56        -8.1696   -0.7677   53.5479 H       1  ZINC000805177769    0.0700
     57 H57       -11.8030    1.3191   52.6827 H       1  ZINC000805177769    0.0900
     58 H58       -11.0006    0.3649   51.4124 H       1  ZINC000805177769    0.0700
     59 H59       -11.7978   -0.4585   52.7742 H       1  ZINC000805177769    0.0600
     60 H60       -10.1958   -0.0102   58.3486 H       1  ZINC000805177769    0.0900
     61 H61       -10.0599    1.6910   58.8892 H       1  ZINC000805177769    0.0800
     62 H62       -15.8633   -1.9713   61.2065 H       1  ZINC000805177769    0.0700
     63 H63       -15.1128   -3.5195   61.6630 H       1  ZINC000805177769    0.0700
     64 H64       -14.2632   -1.9891   61.9860 H       1  ZINC000805177769    0.0700
     65 H65       -15.2171   -4.4321   59.4150 H       1  ZINC000805177769    0.1200
@<TRIPOS>BOND
     1     1     2    1
     2     1    33    1
     3     1    34    1
     4     1    35    1
     5     2    32   ar
     6     2     3   ar
     7     3     4   ar
     8     3    36    1
     9     4     5   ar
    10     4    37    1
    11     5     6    1
    12     5    30   ar
    13     6     7    1
    14     6    38    1
    15     6    39    1
    16     7     8    1
    17     7     9    1
    18     7    10    1
    19     9    40    1
    20     9    41    1
    21     9    42    1
    22    10    11   am
    23    10    43    1
    24    11    12    2
    25    11    13    1
    26    13    14    2
    27    13    15   am
    28    15    29    1
    29    15    16    1
    30    16    17    1
    31    16    44    1
    32    16    45    1
    33    17    18    1
    34    17    46    1
    35    17    47    1
    36    18    19    1
    37    18    20    1
    38    18    29    1
    39    20    21    1
    40    20    22   am
    41    21    48    1
    42    21    49    1
    43    21    50    1
    44    22    23    2
    45    22    24    1
    46    24    25    1
    47    25    26    1
    48    25    27    1
    49    25    28    1
    50    26    51    1
    51    26    52    1
    52    26    53    1
    53    27    54    1
    54    27    55    1
    55    27    56    1
    56    28    57    1
    57    28    58    1
    58    28    59    1
    59    29    60    1
    60    29    61    1
    61    30    31    1
    62    30    32   ar
    63    31    62    1
    64    31    63    1
    65    31    64    1
    66    32    65    1
@<TRIPOS>SUBSTRUCTURE
     1 ZINC000805177769        1 TEMP              0 ****  ****    0 ROOT


##########                                Name:    ZINC000790205345
##########                DOCK_Rotatable_Bonds:                   7
##########                         Heavy_Atoms:                  28
##########                    Molecular_Weight:             382.459
##########                DOCK_Rotatable_Bonds:                   7
##########                       Formal_Charge:          -0.0299997
##########                     HBond_Acceptors:                   6
##########                        HBond_Donors:                   0
##########                         Heavy_Atoms:                  28
##########                          Grid_Score:          -30.743723
##########                     Grid_vdw_energy:          -29.713095
##########                      Grid_es_energy:           -1.030628
##########           Internal_energy_repulsive:           47.136890

@<TRIPOS>MOLECULE
ZINC000790205345
 54 56 1 0 0
SMALL
USER_CHARGES


@<TRIPOS>ATOM
      1 C1         -2.7996    2.2426   56.3723 C.3     1  ZINC000790205345   -0.1100
      2 C2         -2.6878    2.8162   54.9832 C.ar    1  ZINC000790205345   -0.1300
      3 C3         -3.8075    2.8933   54.1763 C.ar    1  ZINC000790205345   -0.0800
      4 C4         -3.7078    3.4192   52.9026 C.ar    1  ZINC000790205345   -0.2100
      5 C5         -2.4827    3.8701   52.4337 C.ar    1  ZINC000790205345    0.1300
      6 O6         -2.3819    4.3883   51.1813 O.3     1  ZINC000790205345   -0.2900
      7 C7         -2.5338    3.4793   50.0891 C.3     1  ZINC000790205345    0.0400
      8 C8         -1.5740    3.8519   48.9885 C.2     1  ZINC000790205345    0.5200
      9 O9         -0.8724    4.8346   49.1026 O.2     1  ZINC000790205345   -0.5100
     10 N10        -1.4954    3.0931   47.8774 N.am    1  ZINC000790205345   -0.6100
     11 C11        -2.3443    1.9072   47.7388 C.3     1  ZINC000790205345    0.0700
     12 C12        -0.5613    3.4543   46.8084 C.3     1  ZINC000790205345    0.1800
     13 H13        -0.1417    4.4400   47.0100 H       1  ZINC000790205345    0.1200
     14 C14        -1.3027    3.4797   45.4702 C.3     1  ZINC000790205345   -0.1600
     15 C15         0.5500    2.4382   46.7477 C.ar    1  ZINC000790205345   -0.0700
     16 C16         0.8443    1.6695   47.8586 C.ar    1  ZINC000790205345   -0.1300
     17 C17         1.8638    0.7364   47.8071 C.ar    1  ZINC000790205345   -0.0900
     18 C18         2.5907    0.5693   46.6449 C.ar    1  ZINC000790205345   -0.1500
     19 C19         2.2973    1.3395   45.5272 C.ar    1  ZINC000790205345    0.1800
     20 N20         3.0320    1.1723   44.3478 N.am    1  ZINC000790205345   -0.5700
     21 C21         2.8302    1.9250   43.1003 C.3     1  ZINC000790205345    0.0600
     22 C22         3.8928    1.3461   42.1464 C.3     1  ZINC000790205345    0.0400
     23 O23         4.5749    0.3385   42.9479 O.3     1  ZINC000790205345   -0.3200
     24 C24         4.0380    0.3045   44.1727 C.2     1  ZINC000790205345    0.6400
     25 O25         4.4219   -0.4501   45.0444 O.2     1  ZINC000790205345   -0.5000
     26 C26         1.2698    2.2719   45.5805 C.ar    1  ZINC000790205345   -0.1400
     27 C27        -1.3601    3.7917   53.2455 C.ar    1  ZINC000790205345   -0.1500
     28 C28        -1.4663    3.2700   54.5201 C.ar    1  ZINC000790205345   -0.0500
     29 C29        -0.2477    3.1849   55.4027 C.3     1  ZINC000790205345   -0.1200
     30 H30        -3.0340    3.0405   57.0771 H       1  ZINC000790205345    0.0700
     31 H31        -3.5920    1.4944   56.3937 H       1  ZINC000790205345    0.0600
     32 H32        -1.8537    1.7781   56.6508 H       1  ZINC000790205345    0.0700
     33 H33        -4.7612    2.5418   54.5417 H       1  ZINC000790205345    0.1300
     34 H34        -4.5828    3.4788   52.2724 H       1  ZINC000790205345    0.1300
     35 H35        -2.3218    2.4653   50.4281 H       1  ZINC000790205345    0.1000
     36 H36        -3.5555    3.5307   49.7130 H       1  ZINC000790205345    0.0900
     37 H37        -3.3208    2.2021   47.3550 H       1  ZINC000790205345    0.0600
     38 H38        -1.8784    1.2059   47.0465 H       1  ZINC000790205345    0.0800
     39 H39        -2.4651    1.4311   48.7118 H       1  ZINC000790205345    0.0700
     40 H40        -1.7222    2.4941   45.2685 H       1  ZINC000790205345    0.0600
     41 H41        -2.1064    4.2147   45.5140 H       1  ZINC000790205345    0.0700
     42 H42        -0.6076    3.7484   44.6747 H       1  ZINC000790205345    0.0800
     43 H43         0.2772    1.7983   48.7686 H       1  ZINC000790205345    0.1300
     44 H44         2.0918    0.1379   48.6767 H       1  ZINC000790205345    0.1300
     45 H45         3.3870   -0.1594   46.6055 H       1  ZINC000790205345    0.1300
     46 H46         1.8283    1.7529   42.7071 H       1  ZINC000790205345    0.1000
     47 H47         3.0010    2.9891   43.2633 H       1  ZINC000790205345    0.1000
     48 H48         3.4183    0.8873   41.2789 H       1  ZINC000790205345    0.1100
     49 H49         4.5907    2.1233   41.8349 H       1  ZINC000790205345    0.1100
     50 H50         1.0390    2.8722   44.7129 H       1  ZINC000790205345    0.1600
     51 H51        -0.4051    4.1418   52.8827 H       1  ZINC000790205345    0.1300
     52 H52        -0.1545    4.1029   55.9829 H       1  ZINC000790205345    0.0700
     53 H53        -0.3475    2.3360   56.0791 H       1  ZINC000790205345    0.0700
     54 H54         0.6404    3.0543   54.7842 H       1  ZINC000790205345    0.0700
@<TRIPOS>BOND
     1     1     2    1
     2     1    30    1
     3     1    31    1
     4     1    32    1
     5     2    28   ar
     6     2     3   ar
     7     3     4   ar
     8     3    33    1
     9     4     5   ar
    10     4    34    1
    11     5     6    1
    12     5    27   ar
    13     6     7    1
    14     7     8    1
    15     7    35    1
    16     7    36    1
    17     8     9    2
    18     8    10   am
    19    10    11    1
    20    10    12    1
    21    11    37    1
    22    11    38    1
    23    11    39    1
    24    12    13    1
    25    12    14    1
    26    12    15    1
    27    14    40    1
    28    14    41    1
    29    14    42    1
    30    15    26   ar
    31    15    16   ar
    32    16    17   ar
    33    16    43    1
    34    17    18   ar
    35    17    44    1
    36    18    19   ar
    37    18    45    1
    38    19    20    1
    39    19    26   ar
    40    20    24   am
    41    20    21    1
    42    21    22    1
    43    21    46    1
    44    21    47    1
    45    22    23    1
    46    22    48    1
    47    22    49    1
    48    23    24    1
    49    24    25    2
    50    26    50    1
    51    27    28   ar
    52    27    51    1
    53    28    29    1
    54    29    52    1
    55    29    53    1
    56    29    54    1
@<TRIPOS>SUBSTRUCTURE
     1 ZINC000790205345        1 TEMP              0 ****  ****    0 ROOT


##########                                Name:    ZINC001105793963
##########                DOCK_Rotatable_Bonds:                   9
##########                         Heavy_Atoms:                  24
##########                    Molecular_Weight:             337.422
##########                DOCK_Rotatable_Bonds:                   9
##########                       Formal_Charge:          -0.0100003
##########                     HBond_Acceptors:                   8
##########                        HBond_Donors:                   2
##########                         Heavy_Atoms:                  24
##########                          Grid_Score:          -30.742002
##########                     Grid_vdw_energy:          -30.786276
##########                      Grid_es_energy:            0.044273
##########           Internal_energy_repulsive:           44.281986

@<TRIPOS>MOLECULE
ZINC001105793963
 51 52 1 0 0
SMALL
USER_CHARGES


@<TRIPOS>ATOM
      1 C1          3.8758   -0.1253   40.6144 C.3     1  ZINC001105793963   -0.1500
      2 C2          3.9220    1.0530   41.5895 C.3     1  ZINC001105793963   -0.0300
      3 C3          2.7469    0.9734   42.5296 C.2     1  ZINC001105793963    0.1800
      4 N4          1.5719    0.4530   42.2685 N.2     1  ZINC001105793963   -0.4800
      5 C5          0.8506    0.6053   43.3935 C.2     1  ZINC001105793963    0.1700
      6 C6         -0.5757    0.1669   43.6047 C.3     1  ZINC001105793963    0.1500
      7 N7         -0.8465    0.0583   45.0444 N.3     1  ZINC001105793963   -0.6900
      8 C8         -1.3309    1.3347   45.5868 C.3     1  ZINC001105793963    0.0700
      9 C9         -1.4975    1.2142   47.1029 C.3     1  ZINC001105793963   -0.1000
     10 H10        -2.3109    0.5286   47.3406 H       1  ZINC001105793963    0.1000
     11 C11        -1.7655    2.6014   47.7254 C.3     1  ZINC001105793963    0.1100
     12 N12        -1.0360    2.5799   49.0145 N.am    1  ZINC001105793963   -0.6200
     13 C13        -1.4335    3.0877   50.1980 C.2     1  ZINC001105793963    0.5300
     14 O14        -0.7162    2.9909   51.1711 O.2     1  ZINC001105793963   -0.5300
     15 C15        -2.7694    3.7759   50.3119 C.3     1  ZINC001105793963    0.1300
     16 H16        -3.5310    3.1757   49.8144 H       1  ZINC001105793963    0.1100
     17 C17        -3.1339    3.9405   51.7887 C.3     1  ZINC001105793963   -0.1600
     18 N18        -2.6952    5.0944   49.6775 N.am    1  ZINC001105793963   -0.7200
     19 C19        -1.5056    5.7149   49.5500 C.2     1  ZINC001105793963    0.5200
     20 C20        -1.4290    7.0703   48.8957 C.3     1  ZINC001105793963   -0.1700
     21 O21        -0.4968    5.1825   49.9618 O.2     1  ZINC001105793963   -0.5500
     22 C22         0.2297    1.8736   48.7078 C.3     1  ZINC001105793963    0.1000
     23 C23        -0.1829    0.7316   47.7503 C.3     1  ZINC001105793963   -0.1000
     24 H24         0.5817    0.5813   46.9882 H       1  ZINC001105793963    0.0900
     25 C25        -0.4132   -0.5623   48.5338 C.3     1  ZINC001105793963   -0.1500
     26 N26         1.6095    1.1995   44.2650 N.2     1  ZINC001105793963   -0.3700
     27 O27         2.7049    1.4145   43.7904 O.3     1  ZINC001105793963    0.0800
     28 H28         3.9197   -1.0606   41.1725 H       1  ZINC001105793963    0.0600
     29 H29         2.9492   -0.0869   40.0419 H       1  ZINC001105793963    0.0600
     30 H30         4.7257   -0.0677   39.9344 H       1  ZINC001105793963    0.0800
     31 H31         4.8487    1.0146   42.1620 H       1  ZINC001105793963    0.1100
     32 H32         3.8782    1.9883   41.0314 H       1  ZINC001105793963    0.1000
     33 H33        -1.2503    0.8998   43.1623 H       1  ZINC001105793963    0.1000
     34 H34        -0.7316   -0.8026   43.1314 H       1  ZINC001105793963    0.0700
     35 H35        -1.5001   -0.6866   45.2342 H       1  ZINC001105793963    0.3500
     36 H36        -0.6112    2.1216   45.3617 H       1  ZINC001105793963    0.0800
     37 H37        -2.2916    1.5806   45.1341 H       1  ZINC001105793963    0.0400
     38 H38        -1.3752    3.3890   47.0808 H       1  ZINC001105793963    0.0700
     39 H39        -2.8330    2.7421   47.8950 H       1  ZINC001105793963    0.0900
     40 H40        -4.1001    4.4383   51.8712 H       1  ZINC001105793963    0.0800
     41 H41        -3.1891    2.9595   52.2608 H       1  ZINC001105793963    0.0800
     42 H42        -2.3723    4.5408   52.2863 H       1  ZINC001105793963    0.0600
     43 H43        -3.5022    5.5207   49.3491 H       1  ZINC001105793963    0.4100
     44 H44        -2.4278    7.3843   48.5925 H       1  ZINC001105793963    0.0800
     45 H45        -1.0200    7.7923   49.6024 H       1  ZINC001105793963    0.1000
     46 H46        -0.7840    7.0145   48.0188 H       1  ZINC001105793963    0.1000
     47 H47         0.9316    2.5476   48.2167 H       1  ZINC001105793963    0.0800
     48 H48         0.6674    1.4652   49.6186 H       1  ZINC001105793963    0.0900
     49 H49        -1.1883   -0.4003   49.2828 H       1  ZINC001105793963    0.0600
     50 H50        -0.7280   -1.3502   47.8496 H       1  ZINC001105793963    0.0600
     51 H51         0.5127   -0.8579   49.0272 H       1  ZINC001105793963    0.0600
@<TRIPOS>BOND
     1     1     2    1
     2     1    28    1
     3     1    29    1
     4     1    30    1
     5     2     3    1
     6     2    31    1
     7     2    32    1
     8     3    27    1
     9     3     4    2
    10     4     5    1
    11     5     6    1
    12     5    26    2
    13     6     7    1
    14     6    33    1
    15     6    34    1
    16     7     8    1
    17     7    35    1
    18     8     9    1
    19     8    36    1
    20     8    37    1
    21     9    10    1
    22     9    23    1
    23     9    11    1
    24    11    12    1
    25    11    38    1
    26    11    39    1
    27    12    13   am
    28    12    22    1
    29    13    14    2
    30    13    15    1
    31    15    16    1
    32    15    17    1
    33    15    18    1
    34    17    40    1
    35    17    41    1
    36    17    42    1
    37    18    19   am
    38    18    43    1
    39    19    20    1
    40    19    21    2
    41    20    44    1
    42    20    45    1
    43    20    46    1
    44    22    23    1
    45    22    47    1
    46    22    48    1
    47    23    24    1
    48    23    25    1
    49    25    49    1
    50    25    50    1
    51    25    51    1
    52    26    27    1
@<TRIPOS>SUBSTRUCTURE
     1 ZINC001105793963        1 TEMP              0 ****  ****    0 ROOT


##########                                Name:    ZINC000432833246
##########                DOCK_Rotatable_Bonds:                   5
##########                         Heavy_Atoms:                  25
##########                    Molecular_Weight:             400.318
##########                DOCK_Rotatable_Bonds:                   5
##########                       Formal_Charge:        -3.20375e-07
##########                     HBond_Acceptors:                   4
##########                        HBond_Donors:                   1
##########                         Heavy_Atoms:                  25
##########                          Grid_Score:          -30.706984
##########                     Grid_vdw_energy:          -26.804939
##########                      Grid_es_energy:           -3.902044
##########           Internal_energy_repulsive:            7.693277

@<TRIPOS>MOLECULE
ZINC000432833246
 47 51 1 0 0
SMALL
USER_CHARGES


@<TRIPOS>ATOM
      1 O1         -8.0556   -1.2934   66.8358 O.2     1  ZINC000432833246   -0.5200
      2 C2         -8.3956   -0.4775   66.0053 C.2     1  ZINC000432833246    0.5200
      3 C3         -7.8811   -0.4219   64.5837 C.3     1  ZINC000432833246   -0.1500
      4 C4         -8.8974    0.4817   63.8477 C.3     1  ZINC000432833246   -0.1100
      5 H5         -9.6804   -0.1139   63.3784 H       1  ZINC000432833246    0.1000
      6 C6         -8.1956    1.3683   62.8170 C.3     1  ZINC000432833246    0.1300
      7 N7         -7.5083    0.5257   61.8352 N.pl3   1  ZINC000432833246   -0.7200
      8 C8         -8.1556    0.1536   60.6668 C.ar    1  ZINC000432833246    0.2800
      9 C9         -7.8847    0.8084   59.4418 C.ar    1  ZINC000432833246   -0.1500
     10 C10        -6.9541    1.8540   59.3636 C.ar    1  ZINC000432833246   -0.0700
     11 C11        -6.7200    2.4597   58.1659 C.ar    1  ZINC000432833246   -0.1300
     12 C12        -7.3940    2.0536   57.0168 C.ar    1  ZINC000432833246   -0.0600
     13 C13        -8.3043    1.0411   57.0578 C.ar    1  ZINC000432833246   -0.0800
     14 Br14       -9.2046    0.5098   55.4820 Br      1  ZINC000432833246   -0.0300
     15 C15        -8.5715    0.3921   58.2766 C.ar    1  ZINC000432833246    0.1900
     16 N16        -9.4600   -0.6055   58.3455 N.ar    1  ZINC000432833246   -0.5000
     17 C17        -9.7196   -1.2208   59.4758 C.ar    1  ZINC000432833246    0.2400
     18 C18       -10.7317   -2.3372   59.4861 C.3     1  ZINC000432833246   -0.1100
     19 C19       -12.0667   -2.0741   60.1859 C.3     1  ZINC000432833246   -0.1700
     20 C20       -12.0043   -2.1448   58.6587 C.3     1  ZINC000432833246   -0.1600
     21 C21        -9.0845   -0.8752   60.6606 C.ar    1  ZINC000432833246   -0.2700
     22 C22        -9.4664    1.3266   65.0090 C.3     1  ZINC000432833246    0.1100
     23 N23        -9.2889    0.5054   66.2124 N.am    1  ZINC000432833246   -0.5900
     24 C24        -9.9885    0.7332   67.4792 C.3     1  ZINC000432833246    0.0800
     25 C25       -10.2090    2.1835   67.9137 C.3     1  ZINC000432833246   -0.1900
     26 C26       -11.3883    1.3472   67.4127 C.3     1  ZINC000432833246   -0.1900
     27 H27        -6.8858    0.0215   64.5553 H       1  ZINC000432833246    0.1100
     28 H28        -7.8683   -1.4189   64.1435 H       1  ZINC000432833246    0.1000
     29 H29        -8.9337    1.9894   62.3094 H       1  ZINC000432833246    0.0800
     30 H30        -7.4690    2.0059   63.3208 H       1  ZINC000432833246    0.0700
     31 H31        -6.6003    0.2283   62.0026 H       1  ZINC000432833246    0.4000
     32 H32        -6.4259    2.1779   60.2482 H       1  ZINC000432833246    0.1300
     33 H33        -6.0029    3.2652   58.1067 H       1  ZINC000432833246    0.1400
     34 H34        -7.1922    2.5494   56.0789 H       1  ZINC000432833246    0.1400
     35 H35       -10.3200   -3.3444   59.5492 H       1  ZINC000432833246    0.1300
     36 H36       -12.5333   -2.9083   60.7096 H       1  ZINC000432833246    0.1000
     37 H37       -12.2128   -1.0935   60.6387 H       1  ZINC000432833246    0.1000
     38 H38       -12.1094   -1.2106   58.1070 H       1  ZINC000432833246    0.0900
     39 H39       -12.4299   -3.0255   58.1779 H       1  ZINC000432833246    0.1000
     40 H40        -9.3188   -1.4001   61.5748 H       1  ZINC000432833246    0.1400
     41 H41        -8.9140    2.2617   65.1011 H       1  ZINC000432833246    0.0800
     42 H42       -10.5252    1.5277   64.8456 H       1  ZINC000432833246    0.0900
     43 H43        -9.7985   -0.0031   68.2601 H       1  ZINC000432833246    0.1300
     44 H44       -10.1639    2.4017   68.9806 H       1  ZINC000432833246    0.1000
     45 H45        -9.8335    2.9682   67.2569 H       1  ZINC000432833246    0.1300
     46 H46       -11.7886    1.5818   66.4264 H       1  ZINC000432833246    0.0900
     47 H47       -12.1191    1.0152   68.1502 H       1  ZINC000432833246    0.1000
@<TRIPOS>BOND
     1     1     2    2
     2     2    23   am
     3     2     3    1
     4     3     4    1
     5     3    27    1
     6     3    28    1
     7     4     5    1
     8     4     6    1
     9     4    22    1
    10     6     7    1
    11     6    29    1
    12     6    30    1
    13     7     8    1
    14     7    31    1
    15     8    21   ar
    16     8     9   ar
    17     9    15   ar
    18     9    10   ar
    19    10    11   ar
    20    10    32    1
    21    11    12   ar
    22    11    33    1
    23    12    13   ar
    24    12    34    1
    25    13    14    1
    26    13    15   ar
    27    15    16   ar
    28    16    17   ar
    29    17    18    1
    30    17    21   ar
    31    18    20    1
    32    18    19    1
    33    18    35    1
    34    19    20    1
    35    19    36    1
    36    19    37    1
    37    20    38    1
    38    20    39    1
    39    21    40    1
    40    22    23    1
    41    22    41    1
    42    22    42    1
    43    23    24    1
    44    24    26    1
    45    24    25    1
    46    24    43    1
    47    25    26    1
    48    25    44    1
    49    25    45    1
    50    26    46    1
    51    26    47    1
@<TRIPOS>SUBSTRUCTURE
     1 ZINC000432833246        1 TEMP              0 ****  ****    0 ROOT


##########                                Name:    ZINC000503413572
##########                DOCK_Rotatable_Bonds:                   7
##########                         Heavy_Atoms:                  26
##########                    Molecular_Weight:             355.375
##########                DOCK_Rotatable_Bonds:                   7
##########                       Formal_Charge:        -1.71363e-07
##########                     HBond_Acceptors:                   9
##########                        HBond_Donors:                   1
##########                         Heavy_Atoms:                  26
##########                          Grid_Score:          -30.661327
##########                     Grid_vdw_energy:          -31.940468
##########                      Grid_es_energy:            1.279141
##########           Internal_energy_repulsive:            7.916722

@<TRIPOS>MOLECULE
ZINC000503413572
 44 47 1 0 0
SMALL
USER_CHARGES


@<TRIPOS>ATOM
      1 C1         -1.6343    2.6380   45.6584 C.3     1  ZINC000503413572   -0.1200
      2 C2         -0.3940    1.9218   46.1269 C.ar    1  ZINC000503413572   -0.0200
      3 C3          0.6312    1.6627   45.2389 C.ar    1  ZINC000503413572   -0.1400
      4 C4          1.7716    1.0048   45.6693 C.ar    1  ZINC000503413572    0.1300
      5 F5          2.7738    0.7525   44.7991 F       1  ZINC000503413572   -0.1300
      6 C6          1.8859    0.6058   46.9903 C.ar    1  ZINC000503413572   -0.1400
      7 C7          0.8624    0.8633   47.8813 C.ar    1  ZINC000503413572   -0.0700
      8 C8         -0.2790    1.5270   47.4531 C.ar    1  ZINC000503413572    0.1000
      9 N9         -1.3192    1.7899   48.3568 N.pl3   1  ZINC000503413572   -0.3100
     10 C10        -1.5138    2.9320   49.0508 C.2     1  ZINC000503413572    0.1100
     11 C11        -2.6394    2.7497   49.8035 C.2     1  ZINC000503413572   -0.1000
     12 C12        -3.2323    3.7401   50.7219 C.2     1  ZINC000503413572    0.6100
     13 O13        -3.0680    4.9283   50.5231 O.2     1  ZINC000503413572   -0.5300
     14 N14        -3.9563    3.3279   51.7813 N.am    1  ZINC000503413572   -0.7200
     15 C15        -4.5466    4.3116   52.6925 C.3     1  ZINC000503413572    0.1100
     16 C16        -3.5369    4.6636   53.7867 C.3     1  ZINC000503413572    0.1000
     17 N17        -3.3118    3.4930   54.6384 N.pl3   1  ZINC000503413572   -0.4700
     18 C18        -2.2428    2.6608   54.6142 C.2     1  ZINC000503413572    0.1500
     19 N19        -2.4373    1.7522   55.5308 N.2     1  ZINC000503413572   -0.2900
     20 N20        -3.5587    1.9671   56.1224 N.2     1  ZINC000503413572   -0.2900
     21 C21        -4.1278    3.0261   55.6141 C.2     1  ZINC000503413572    0.2100
     22 C22        -5.4519    3.6142   56.0286 C.3     1  ZINC000503413572   -0.1000
     23 C23        -6.7172    3.0008   55.4258 C.3     1  ZINC000503413572   -0.1500
     24 C24        -6.3696    2.7485   56.8942 C.3     1  ZINC000503413572   -0.1600
     25 N25        -3.1152    1.5153   49.5657 N.2     1  ZINC000503413572   -0.2000
     26 N26        -2.3607    0.9197   48.7091 N.2     1  ZINC000503413572   -0.0400
     27 H27        -1.5375    3.7042   45.8633 H       1  ZINC000503413572    0.0900
     28 H28        -1.7598    2.4840   44.5866 H       1  ZINC000503413572    0.0800
     29 H29        -2.5028    2.2440   46.1862 H       1  ZINC000503413572    0.0700
     30 H30         0.5436    1.9728   44.2082 H       1  ZINC000503413572    0.1500
     31 H31         2.7756    0.0926   47.3240 H       1  ZINC000503413572    0.1500
     32 H32         0.9517    0.5516   48.9115 H       1  ZINC000503413572    0.1500
     33 H33        -0.8980    3.8186   49.0175 H       1  ZINC000503413572    0.2100
     34 H34        -4.0864    2.3799   51.9407 H       1  ZINC000503413572    0.4100
     35 H35        -4.8078    5.2116   52.1358 H       1  ZINC000503413572    0.0800
     36 H36        -5.4442    3.8925   53.1475 H       1  ZINC000503413572    0.0800
     37 H37        -2.5952    4.9660   53.3285 H       1  ZINC000503413572    0.1100
     38 H38        -3.9266    5.4829   54.3909 H       1  ZINC000503413572    0.1100
     39 H39        -1.3885    2.7352   53.9577 H       1  ZINC000503413572    0.2200
     40 H40        -5.4518    4.6885   56.2135 H       1  ZINC000503413572    0.1200
     41 H41        -7.5499    3.6715   55.2138 H       1  ZINC000503413572    0.1100
     42 H42        -6.5920    2.1718   54.7292 H       1  ZINC000503413572    0.1100
     43 H43        -6.0156    1.7534   57.1638 H       1  ZINC000503413572    0.1000
     44 H44        -6.9734    3.2532   57.6483 H       1  ZINC000503413572    0.1100
@<TRIPOS>BOND
     1     1     2    1
     2     1    27    1
     3     1    28    1
     4     1    29    1
     5     2     8   ar
     6     2     3   ar
     7     3     4   ar
     8     3    30    1
     9     4     5    1
    10     4     6   ar
    11     6     7   ar
    12     6    31    1
    13     7     8   ar
    14     7    32    1
    15     8     9    1
    16     9    26    1
    17     9    10    1
    18    10    11    2
    19    10    33    1
    20    11    12    1
    21    11    25    1
    22    12    13    2
    23    12    14   am
    24    14    15    1
    25    14    34    1
    26    15    16    1
    27    15    35    1
    28    15    36    1
    29    16    17    1
    30    16    37    1
    31    16    38    1
    32    17    21    1
    33    17    18    1
    34    18    19    2
    35    18    39    1
    36    19    20    1
    37    20    21    2
    38    21    22    1
    39    22    24    1
    40    22    23    1
    41    22    40    1
    42    23    24    1
    43    23    41    1
    44    23    42    1
    45    24    43    1
    46    24    44    1
    47    25    26    2
@<TRIPOS>SUBSTRUCTURE
     1 ZINC000503413572        1 TEMP              0 ****  ****    0 ROOT


##########                                Name:    ZINC000065993627
##########                DOCK_Rotatable_Bonds:                   7
##########                         Heavy_Atoms:                  28
##########                    Molecular_Weight:             382.462
##########                DOCK_Rotatable_Bonds:                   7
##########                       Formal_Charge:          -0.0200002
##########                     HBond_Acceptors:                   7
##########                        HBond_Donors:                   2
##########                         Heavy_Atoms:                  28
##########                          Grid_Score:          -30.558899
##########                     Grid_vdw_energy:          -27.122780
##########                      Grid_es_energy:           -3.436120
##########           Internal_energy_repulsive:           37.101555

@<TRIPOS>MOLECULE
ZINC000065993627
 54 56 1 0 0
SMALL
USER_CHARGES


@<TRIPOS>ATOM
      1 C1         -8.7819    1.8844   55.6764 C.3     1  ZINC000065993627   -0.1200
      2 C2         -7.4494    2.4348   56.1152 C.ar    1  ZINC000065993627   -0.0700
      3 C3         -6.5258    2.8402   55.1726 C.ar    1  ZINC000065993627   -0.1800
      4 C4         -5.2976    3.3475   55.5771 C.ar    1  ZINC000065993627    0.2000
      5 N5         -4.3616    3.7588   54.6219 N.pl3   1  ZINC000065993627   -0.6400
      6 C6         -3.2281    2.8932   54.2871 C.3     1  ZINC000065993627    0.1000
      7 C7         -4.5152    5.0548   53.9564 C.3     1  ZINC000065993627    0.0900
      8 C8         -4.9991    3.4468   56.9295 C.ar    1  ZINC000065993627   -0.1800
      9 C9         -5.9233    3.0411   57.8721 C.ar    1  ZINC000065993627   -0.0800
     10 C10        -7.1528    2.5395   57.4677 C.ar    1  ZINC000065993627    0.1100
     11 N11        -8.0911    2.1281   58.4248 N.am    1  ZINC000065993627   -0.6800
     12 C12        -7.8464    1.0425   59.1851 C.2     1  ZINC000065993627    0.7000
     13 O13        -6.8120    0.4198   59.0410 O.2     1  ZINC000065993627   -0.5700
     14 N14        -8.7484    0.6471   60.1052 N.am    1  ZINC000065993627   -0.7400
     15 C15        -8.4816   -0.5320   60.9329 C.3     1  ZINC000065993627    0.2100
     16 H16        -7.4233   -0.7856   60.8736 H       1  ZINC000065993627    0.1000
     17 C17        -9.3175   -1.7096   60.4274 C.3     1  ZINC000065993627   -0.1600
     18 C18        -8.8475   -0.2342   62.3642 C.ar    1  ZINC000065993627   -0.1200
     19 C19        -9.9752    0.5147   62.6465 C.ar    1  ZINC000065993627   -0.0800
     20 C20       -10.3131    0.7895   63.9572 C.ar    1  ZINC000065993627   -0.1500
     21 C21        -9.5192    0.3127   64.9919 C.ar    1  ZINC000065993627    0.1800
     22 N22        -9.8592    0.5889   66.3211 N.am    1  ZINC000065993627   -0.5700
     23 C23       -11.0297    1.3631   66.7616 C.3     1  ZINC000065993627    0.0600
     24 C24       -10.9172    1.3563   68.2983 C.3     1  ZINC000065993627    0.0400
     25 O25        -9.7077    0.5871   68.5600 O.3     1  ZINC000065993627   -0.3200
     26 C26        -9.1744    0.1864   67.4004 C.2     1  ZINC000065993627    0.6400
     27 O27        -8.1570   -0.4746   67.3317 O.2     1  ZINC000065993627   -0.5000
     28 C28        -8.3875   -0.4392   64.7051 C.ar    1  ZINC000065993627   -0.1500
     29 C29        -8.0580   -0.7152   63.3924 C.ar    1  ZINC000065993627   -0.0800
     30 H30        -9.4993    2.6999   55.5842 H       1  ZINC000065993627    0.0700
     31 H31        -8.6703    1.3879   54.7126 H       1  ZINC000065993627    0.0700
     32 H32        -9.1399    1.1675   56.4153 H       1  ZINC000065993627    0.0600
     33 H33        -6.7581    2.7625   54.1207 H       1  ZINC000065993627    0.1200
     34 H34        -3.5053    2.2331   53.4653 H       1  ZINC000065993627    0.0500
     35 H35        -2.3778    3.5069   53.9893 H       1  ZINC000065993627    0.0700
     36 H36        -2.9575    2.2958   55.1578 H       1  ZINC000065993627    0.0700
     37 H37        -5.3572    5.5907   54.3946 H       1  ZINC000065993627    0.0800
     38 H38        -3.6049    5.6400   54.0861 H       1  ZINC000065993627    0.0500
     39 H39        -4.6980    4.8980   52.8933 H       1  ZINC000065993627    0.0500
     40 H40        -4.0441    3.8409   57.2442 H       1  ZINC000065993627    0.1300
     41 H41        -5.6911    3.1183   58.9240 H       1  ZINC000065993627    0.1500
     42 H42        -8.9162    2.6249   58.5399 H       1  ZINC000065993627    0.4000
     43 H43        -9.5741    1.1430   60.2194 H       1  ZINC000065993627    0.4000
     44 H44        -9.0528   -1.9250   59.3921 H       1  ZINC000065993627    0.0700
     45 H45        -9.1191   -2.5868   61.0431 H       1  ZINC000065993627    0.0700
     46 H46       -10.3759   -1.4560   60.4866 H       1  ZINC000065993627    0.0600
     47 H47       -10.5920    0.8857   61.8413 H       1  ZINC000065993627    0.1300
     48 H48       -11.1937    1.3747   64.1771 H       1  ZINC000065993627    0.1600
     49 H49       -10.9808    2.3824   66.3786 H       1  ZINC000065993627    0.1000
     50 H50       -11.9520    0.8773   66.4431 H       1  ZINC000065993627    0.1000
     51 H51       -10.8134    2.3726   68.6784 H       1  ZINC000065993627    0.1100
     52 H52       -11.7843    0.8678   68.7428 H       1  ZINC000065993627    0.1100
     53 H53        -7.7679   -0.8110   65.5076 H       1  ZINC000065993627    0.1300
     54 H54        -7.1782   -1.3001   63.1687 H       1  ZINC000065993627    0.1300
@<TRIPOS>BOND
     1     1     2    1
     2     1    30    1
     3     1    31    1
     4     1    32    1
     5     2    10   ar
     6     2     3   ar
     7     3     4   ar
     8     3    33    1
     9     4     5    1
    10     4     8   ar
    11     5     6    1
    12     5     7    1
    13     6    34    1
    14     6    35    1
    15     6    36    1
    16     7    37    1
    17     7    38    1
    18     7    39    1
    19     8     9   ar
    20     8    40    1
    21     9    10   ar
    22     9    41    1
    23    10    11    1
    24    11    12   am
    25    11    42    1
    26    12    13    2
    27    12    14   am
    28    14    15    1
    29    14    43    1
    30    15    16    1
    31    15    17    1
    32    15    18    1
    33    17    44    1
    34    17    45    1
    35    17    46    1
    36    18    29   ar
    37    18    19   ar
    38    19    20   ar
    39    19    47    1
    40    20    21   ar
    41    20    48    1
    42    21    22    1
    43    21    28   ar
    44    22    26   am
    45    22    23    1
    46    23    24    1
    47    23    49    1
    48    23    50    1
    49    24    25    1
    50    24    51    1
    51    24    52    1
    52    25    26    1
    53    26    27    2
    54    28    29   ar
    55    28    53    1
    56    29    54    1
@<TRIPOS>SUBSTRUCTURE
     1 ZINC000065993627        1 TEMP              0 ****  ****    0 ROOT


##########                                Name:    ZINC000443394081
##########                DOCK_Rotatable_Bonds:                   8
##########                         Heavy_Atoms:                  27
##########                    Molecular_Weight:             389.878
##########                DOCK_Rotatable_Bonds:                   8
##########                       Formal_Charge:          -0.0300003
##########                     HBond_Acceptors:                   6
##########                        HBond_Donors:                   1
##########                         Heavy_Atoms:                  27
##########                          Grid_Score:          -30.557365
##########                     Grid_vdw_energy:          -30.013575
##########                      Grid_es_energy:           -0.543791
##########           Internal_energy_repulsive:           34.854904

@<TRIPOS>MOLECULE
ZINC000443394081
 51 53 1 0 0
SMALL
USER_CHARGES


@<TRIPOS>ATOM
      1 C1          1.8232   -0.0228   47.9292 C.3     1  ZINC000443394081    0.0200
      2 O2          0.4024   -0.1118   47.8046 O.3     1  ZINC000443394081   -0.3000
      3 C3         -0.3044    1.0395   47.9607 C.ar    1  ZINC000443394081    0.1000
      4 C4         -0.1053    1.8260   49.0784 C.ar    1  ZINC000443394081   -0.1200
      5 C5         -0.8331    3.0088   49.2354 C.ar    1  ZINC000443394081   -0.1300
      6 C6         -0.6238    3.8533   50.4277 C.2     1  ZINC000443394081    0.5700
      7 O7          0.4776    4.3121   50.6620 O.2     1  ZINC000443394081   -0.4900
      8 N8         -1.6534    4.1161   51.2566 N.am    1  ZINC000443394081   -0.6100
      9 C9         -3.0345    3.6270   51.0930 C.3     1  ZINC000443394081    0.0900
     10 C10        -3.6350    3.6496   52.5209 C.3     1  ZINC000443394081   -0.1300
     11 C11        -2.9920    4.9333   53.1089 C.3     1  ZINC000443394081   -0.1000
     12 H12        -3.5530    5.8182   52.8083 H       1  ZINC000443394081    0.0900
     13 C13        -2.9020    4.8440   54.6336 C.3     1  ZINC000443394081   -0.1500
     14 C14        -1.5840    4.9326   52.4773 C.3     1  ZINC000443394081    0.1400
     15 H15        -1.2926    5.9510   52.2199 H       1  ZINC000443394081    0.0800
     16 C16        -0.5738    4.3348   53.4586 C.3     1  ZINC000443394081    0.0600
     17 O17        -0.8108    2.9318   53.5906 O.3     1  ZINC000443394081   -0.5400
     18 C18        -1.7585    3.3903   48.2613 C.ar    1  ZINC000443394081   -0.1000
     19 C19        -1.9529    2.6006   47.1485 C.ar    1  ZINC000443394081   -0.1800
     20 C20        -1.2262    1.4289   46.9896 C.ar    1  ZINC000443394081    0.1300
     21 O21        -1.4213    0.6542   45.8914 O.3     1  ZINC000443394081   -0.3000
     22 C22        -1.3028    1.2922   44.6182 C.3     1  ZINC000443394081    0.1000
     23 C23         0.1530    1.5264   44.3073 C.ar    1  ZINC000443394081   -0.0800
     24 C24         0.8543    2.5086   44.9806 C.ar    1  ZINC000443394081   -0.0800
     25 C25         2.1900    2.7236   44.6954 C.ar    1  ZINC000443394081   -0.1100
     26 C26         2.8246    1.9568   43.7364 C.ar    1  ZINC000443394081   -0.1000
     27 C27         2.1242    0.9741   43.0621 C.ar    1  ZINC000443394081   -0.1100
     28 C28         0.7895    0.7543   43.3514 C.ar    1  ZINC000443394081   -0.0300
     29 Cl29       -0.0907   -0.4796   42.5052 Cl      1  ZINC000443394081   -0.0700
     30 H30         2.2633   -1.0092   47.7828 H       1  ZINC000443394081    0.1000
     31 H31         2.2115    0.6636   47.1768 H       1  ZINC000443394081    0.0600
     32 H32         2.0785    0.3452   48.9230 H       1  ZINC000443394081    0.0600
     33 H33         0.6110    1.5275   49.8295 H       1  ZINC000443394081    0.1500
     34 H34        -3.5962    4.2898   50.4347 H       1  ZINC000443394081    0.0700
     35 H35        -3.0329    2.6110   50.6982 H       1  ZINC000443394081    0.0800
     36 H36        -4.7209    3.7371   52.4866 H       1  ZINC000443394081    0.0900
     37 H37        -3.3332    2.7676   53.0855 H       1  ZINC000443394081    0.0800
     38 H38        -2.3127    3.9705   54.9122 H       1  ZINC000443394081    0.0600
     39 H39        -2.4246    5.7435   55.0227 H       1  ZINC000443394081    0.0600
     40 H40        -3.9044    4.7547   55.0522 H       1  ZINC000443394081    0.0600
     41 H41         0.4368    4.4989   53.0846 H       1  ZINC000443394081    0.0600
     42 H42        -0.6839    4.8150   54.4309 H       1  ZINC000443394081    0.0400
     43 H43        -0.7396    2.4411   52.7604 H       1  ZINC000443394081    0.3700
     44 H44        -2.3222    4.3038   48.3804 H       1  ZINC000443394081    0.1400
     45 H45        -2.6692    2.8965   46.3963 H       1  ZINC000443394081    0.1400
     46 H46        -1.7403    0.6543   43.8501 H       1  ZINC000443394081    0.0800
     47 H47        -1.8279    2.2471   44.6400 H       1  ZINC000443394081    0.0800
     48 H48         0.3587    3.1085   45.7296 H       1  ZINC000443394081    0.1400
     49 H49         2.7376    3.4913   45.2220 H       1  ZINC000443394081    0.1300
     50 H50         3.8678    2.1257   43.5135 H       1  ZINC000443394081    0.1300
     51 H51         2.6202    0.3749   42.3128 H       1  ZINC000443394081    0.1400
@<TRIPOS>BOND
     1     1     2    1
     2     1    30    1
     3     1    31    1
     4     1    32    1
     5     2     3    1
     6     3    20   ar
     7     3     4   ar
     8     4     5   ar
     9     4    33    1
    10     5     6    1
    11     5    18   ar
    12     6     7    2
    13     6     8   am
    14     8    14    1
    15     8     9    1
    16     9    10    1
    17     9    34    1
    18     9    35    1
    19    10    11    1
    20    10    36    1
    21    10    37    1
    22    11    12    1
    23    11    13    1
    24    11    14    1
    25    13    38    1
    26    13    39    1
    27    13    40    1
    28    14    15    1
    29    14    16    1
    30    16    17    1
    31    16    41    1
    32    16    42    1
    33    17    43    1
    34    18    19   ar
    35    18    44    1
    36    19    20   ar
    37    19    45    1
    38    20    21    1
    39    21    22    1
    40    22    23    1
    41    22    46    1
    42    22    47    1
    43    23    28   ar
    44    23    24   ar
    45    24    25   ar
    46    24    48    1
    47    25    26   ar
    48    25    49    1
    49    26    27   ar
    50    26    50    1
    51    27    28   ar
    52    27    51    1
    53    28    29    1
@<TRIPOS>SUBSTRUCTURE
     1 ZINC000443394081        1 TEMP              0 ****  ****    0 ROOT


##########                                Name:    ZINC000787750060
##########                DOCK_Rotatable_Bonds:                   6
##########                         Heavy_Atoms:                  24
##########                    Molecular_Weight:             347.438
##########                DOCK_Rotatable_Bonds:                   6
##########                       Formal_Charge:           0.0200003
##########                     HBond_Acceptors:                   7
##########                        HBond_Donors:                   2
##########                         Heavy_Atoms:                  24
##########                          Grid_Score:          -30.545683
##########                     Grid_vdw_energy:          -29.141390
##########                      Grid_es_energy:           -1.404294
##########           Internal_energy_repulsive:            9.334985

@<TRIPOS>MOLECULE
ZINC000787750060
 45 47 1 0 0
SMALL
USER_CHARGES


@<TRIPOS>ATOM
      1 C1         -1.5335    1.1175   45.3198 C.3     1  ZINC000787750060   -0.1200
      2 C2         -1.7152    1.8607   46.6182 C.ar    1  ZINC000787750060   -0.0400
      3 C3         -2.2305    1.2020   47.7222 C.ar    1  ZINC000787750060   -0.1300
      4 C4         -2.4011    1.8718   48.9146 C.ar    1  ZINC000787750060   -0.0700
      5 C5         -2.0527    3.2209   49.0116 C.ar    1  ZINC000787750060   -0.1700
      6 C6         -2.2322    3.9439   50.2851 C.2     1  ZINC000787750060    0.5600
      7 O7         -2.9140    4.9499   50.3222 O.2     1  ZINC000787750060   -0.5200
      8 N8         -1.6402    3.4891   51.4073 N.am    1  ZINC000787750060   -0.7300
      9 C9         -1.8170    4.2080   52.6715 C.3     1  ZINC000787750060    0.2100
     10 C10        -3.0001    3.6392   53.4116 C.2     1  ZINC000787750060   -0.2800
     11 C11        -4.1027    3.1358   52.8561 C.2     1  ZINC000787750060    0.0900
     12 N12        -5.0017    2.6970   53.7191 N.2     1  ZINC000787750060   -0.5200
     13 C13        -4.7086    2.8069   54.9776 C.2     1  ZINC000787750060    0.2300
     14 N14        -5.5256    2.4019   56.0215 N.3     1  ZINC000787750060   -0.4500
     15 C15        -6.9414    2.4400   55.6278 C.3     1  ZINC000787750060    0.0200
     16 C16        -7.8017    1.9296   56.7867 C.3     1  ZINC000787750060    0.0600
     17 O17        -7.5420    2.7192   57.9505 O.3     1  ZINC000787750060   -0.3800
     18 C18        -6.1726    2.7041   58.3625 C.3     1  ZINC000787750060    0.0600
     19 C19        -5.2957    3.2225   57.2194 C.3     1  ZINC000787750060    0.0300
     20 S20        -3.1639    3.5164   55.1613 S.3     1  ZINC000787750060    0.1700
     21 C21        -1.5312    3.8839   47.8919 C.ar    1  ZINC000787750060    0.1700
     22 O22        -1.1893    5.1941   47.9741 O.3     1  ZINC000787750060   -0.4700
     23 C23        -1.3619    3.1932   46.7017 C.ar    1  ZINC000787750060   -0.1200
     24 C24        -0.8017    3.9002   45.4944 C.3     1  ZINC000787750060   -0.1200
     25 H25        -0.5405    0.6686   45.2941 H       1  ZINC000787750060    0.0800
     26 H26        -2.2881    0.3350   45.2403 H       1  ZINC000787750060    0.0700
     27 H27        -1.6402    1.8113   44.4859 H       1  ZINC000787750060    0.0800
     28 H28        -2.5001    0.1588   47.6483 H       1  ZINC000787750060    0.1300
     29 H29        -2.8038    1.3543   49.7728 H       1  ZINC000787750060    0.1300
     30 H30        -1.0973    2.6859   51.3779 H       1  ZINC000787750060    0.4000
     31 H31        -0.9200    4.0976   53.2808 H       1  ZINC000787750060    0.0900
     32 H32        -1.9899    5.2647   52.4675 H       1  ZINC000787750060    0.0800
     33 H33        -4.2492    3.0905   51.7870 H       1  ZINC000787750060    0.1800
     34 H34        -7.2250    3.4648   55.3878 H       1  ZINC000787750060    0.0600
     35 H35        -7.0937    1.8056   54.7546 H       1  ZINC000787750060    0.1000
     36 H36        -8.8557    2.0096   56.5204 H       1  ZINC000787750060    0.1100
     37 H37        -7.5556    0.8876   56.9914 H       1  ZINC000787750060    0.0700
     38 H38        -6.0481    3.3445   59.2357 H       1  ZINC000787750060    0.1100
     39 H39        -5.8789    1.6848   58.6130 H       1  ZINC000787750060    0.0600
     40 H40        -4.2465    3.1592   57.5082 H       1  ZINC000787750060    0.1000
     41 H41        -5.5529    4.2598   57.0049 H       1  ZINC000787750060    0.0700
     42 H42        -1.8785    5.7575   48.3518 H       1  ZINC000787750060    0.4000
     43 H43         0.2845    3.8081   45.4910 H       1  ZINC000787750060    0.0700
     44 H44        -1.2074    3.4495   44.5887 H       1  ZINC000787750060    0.0700
     45 H45        -1.0769    4.9542   45.5305 H       1  ZINC000787750060    0.0800
@<TRIPOS>BOND
     1     1     2    1
     2     1    25    1
     3     1    26    1
     4     1    27    1
     5     2    23   ar
     6     2     3   ar
     7     3     4   ar
     8     3    28    1
     9     4     5   ar
    10     4    29    1
    11     5     6    1
    12     5    21   ar
    13     6     7    2
    14     6     8   am
    15     8     9    1
    16     8    30    1
    17     9    10    1
    18     9    31    1
    19     9    32    1
    20    10    20    1
    21    10    11    2
    22    11    12    1
    23    11    33    1
    24    12    13    2
    25    13    14    1
    26    13    20    1
    27    14    19    1
    28    14    15    1
    29    15    16    1
    30    15    34    1
    31    15    35    1
    32    16    17    1
    33    16    36    1
    34    16    37    1
    35    17    18    1
    36    18    19    1
    37    18    38    1
    38    18    39    1
    39    19    40    1
    40    19    41    1
    41    21    22    1
    42    21    23   ar
    43    22    42    1
    44    23    24    1
    45    24    43    1
    46    24    44    1
    47    24    45    1
@<TRIPOS>SUBSTRUCTURE
     1 ZINC000787750060        1 TEMP              0 ****  ****    0 ROOT


##########                                Name:    ZINC000274225049
##########                DOCK_Rotatable_Bonds:                   6
##########                         Heavy_Atoms:                  25
##########                    Molecular_Weight:             380.895
##########                DOCK_Rotatable_Bonds:                   6
##########                       Formal_Charge:           0.0200006
##########                     HBond_Acceptors:                   7
##########                        HBond_Donors:                   2
##########                         Heavy_Atoms:                  25
##########                          Grid_Score:          -30.537319
##########                     Grid_vdw_energy:          -30.879068
##########                      Grid_es_energy:            0.341750
##########           Internal_energy_repulsive:           18.751770

@<TRIPOS>MOLECULE
ZINC000274225049
 46 48 1 0 0
SMALL
USER_CHARGES


@<TRIPOS>ATOM
      1 C1         -2.8649    5.2445   51.1551 C.3     1  ZINC000274225049   -0.1600
      2 C2         -2.4986    3.7803   51.4054 C.3     1  ZINC000274225049    0.2000
      3 H3         -1.4140    3.6783   51.4428 H       1  ZINC000274225049    0.1100
      4 N4         -3.0298    2.9516   50.3203 N.am    1  ZINC000274225049   -0.7400
      5 C5         -2.2019    2.1617   49.6083 C.2     1  ZINC000274225049    0.7100
      6 O6         -1.0143    2.1358   49.8675 O.2     1  ZINC000274225049   -0.5800
      7 N7         -2.6904    1.4006   48.6091 N.am    1  ZINC000274225049   -0.7500
      8 C8         -1.7907    0.5407   47.8362 C.3     1  ZINC000274225049    0.1500
      9 C9         -1.3324    1.2816   46.5785 C.3     1  ZINC000274225049   -0.1000
     10 H10        -2.1972    1.6502   46.0267 H       1  ZINC000274225049    0.1000
     11 C11        -0.4999    0.3428   45.6878 C.3     1  ZINC000274225049   -0.1100
     12 C12         0.2244    1.1874   44.6206 C.3     1  ZINC000274225049   -0.5900
     13 S13         0.4503    2.8324   45.3880 S.o2    1  ZINC000274225049    2.3900
     14 O14         1.8317    3.0483   45.6410 O.2     1  ZINC000274225049   -0.9300
     15 O15        -0.2953    3.7982   44.6595 O.2     1  ZINC000274225049   -0.9300
     16 C16        -0.4068    2.4636   46.9660 C.3     1  ZINC000274225049   -0.5900
     17 C17        -3.0908    3.3314   52.7164 C.ar    1  ZINC000274225049   -0.0700
     18 C18        -2.2651    3.1494   53.8385 C.ar    1  ZINC000274225049   -0.0300
     19 C19        -0.8800    3.3783   53.7702 C.ar    1  ZINC000274225049   -0.1100
     20 C20        -0.1115    3.1920   54.8777 C.ar    1  ZINC000274225049   -0.1100
     21 C21        -0.6768    2.7767   56.0821 C.ar    1  ZINC000274225049   -0.1100
     22 C22        -2.0140    2.5455   56.1856 C.ar    1  ZINC000274225049   -0.1000
     23 C23        -2.8399    2.7272   55.0633 C.ar    1  ZINC000274225049   -0.0400
     24 C24        -4.2257    2.4988   55.1317 C.ar    1  ZINC000274225049   -0.0300
     25 Cl25       -4.9528    1.9819   56.6210 Cl      1  ZINC000274225049   -0.0600
     26 C26        -4.9947    2.6858   54.0226 C.ar    1  ZINC000274225049   -0.1000
     27 C27        -4.4294    3.1057   52.8207 C.ar    1  ZINC000274225049   -0.1000
     28 H28        -2.4365    5.5693   50.2069 H       1  ZINC000274225049    0.0700
     29 H29        -3.9495    5.3465   51.1177 H       1  ZINC000274225049    0.0700
     30 H30        -2.4695    5.8611   51.9624 H       1  ZINC000274225049    0.0800
     31 H31        -3.9775    2.9715   50.1143 H       1  ZINC000274225049    0.4000
     32 H32        -3.6377    1.4223   48.4015 H       1  ZINC000274225049    0.4000
     33 H33        -0.9226    0.2842   48.4435 H       1  ZINC000274225049    0.0800
     34 H34        -2.3160   -0.3705   47.5501 H       1  ZINC000274225049    0.0800
     35 H35         0.2335   -0.1854   46.2969 H       1  ZINC000274225049    0.0900
     36 H36        -1.1566   -0.3782   45.2009 H       1  ZINC000274225049    0.0900
     37 H37         1.1916    0.7457   44.3807 H       1  ZINC000274225049    0.1400
     38 H38        -0.3883    1.2694   43.7229 H       1  ZINC000274225049    0.1400
     39 H39        -0.9913    3.3213   47.2985 H       1  ZINC000274225049    0.1400
     40 H40         0.3068    2.1600   47.7321 H       1  ZINC000274225049    0.1400
     41 H41        -0.4281    3.7000   52.8436 H       1  ZINC000274225049    0.1300
     42 H42         0.9527    3.3682   54.8225 H       1  ZINC000274225049    0.1300
     43 H43        -0.0442    2.6361   56.9461 H       1  ZINC000274225049    0.1300
     44 H44        -2.4381    2.2237   57.1253 H       1  ZINC000274225049    0.1300
     45 H45        -6.0588    2.5095   54.0772 H       1  ZINC000274225049    0.1300
     46 H46        -5.0613    3.2464   51.9563 H       1  ZINC000274225049    0.1300
@<TRIPOS>BOND
     1     1     2    1
     2     1    28    1
     3     1    29    1
     4     1    30    1
     5     2     3    1
     6     2     4    1
     7     2    17    1
     8     4     5   am
     9     4    31    1
    10     5     6    2
    11     5     7   am
    12     7     8    1
    13     7    32    1
    14     8     9    1
    15     8    33    1
    16     8    34    1
    17     9    10    1
    18     9    16    1
    19     9    11    1
    20    11    12    1
    21    11    35    1
    22    11    36    1
    23    12    13    1
    24    12    37    1
    25    12    38    1
    26    13    14    2
    27    13    15    2
    28    13    16    1
    29    16    39    1
    30    16    40    1
    31    17    27   ar
    32    17    18   ar
    33    18    23   ar
    34    18    19   ar
    35    19    20   ar
    36    19    41    1
    37    20    21   ar
    38    20    42    1
    39    21    22   ar
    40    21    43    1
    41    22    23   ar
    42    22    44    1
    43    23    24   ar
    44    24    25    1
    45    24    26   ar
    46    26    27   ar
    47    26    45    1
    48    27    46    1
@<TRIPOS>SUBSTRUCTURE
     1 ZINC000274225049        1 TEMP              0 ****  ****    0 ROOT


##########                                Name:    ZINC000291036115
##########                DOCK_Rotatable_Bonds:                   5
##########                         Heavy_Atoms:                  22
##########                    Molecular_Weight:             366.193
##########                DOCK_Rotatable_Bonds:                   5
##########                       Formal_Charge:                0.01
##########                     HBond_Acceptors:                   7
##########                        HBond_Donors:                   0
##########                         Heavy_Atoms:                  22
##########                          Grid_Score:          -30.501793
##########                     Grid_vdw_energy:          -30.966766
##########                      Grid_es_energy:            0.464973
##########           Internal_energy_repulsive:            6.899992

@<TRIPOS>MOLECULE
ZINC000291036115
 35 37 1 0 0
SMALL
USER_CHARGES


@<TRIPOS>ATOM
      1 C1         -1.5661    2.4612   45.5024 C.3     1  <0>        -0.1500
      2 C2         -1.7828    2.2066   46.9955 C.3     1  <0>        -0.0400
      3 H3         -2.8081    1.8765   47.1627 H       1  <0>         0.0900
      4 C4         -1.5294    3.4984   47.7752 C.3     1  <0>        -0.0200
      5 C5         -2.2599    3.4419   49.0920 C.2     1  <0>         0.1900
      6 N6         -2.4291    4.4325   49.9344 N.2     1  <0>        -0.4500
      7 C7         -3.1336    3.9201   50.9591 C.2     1  <0>         0.1500
      8 C8         -3.5861    4.6626   52.1900 C.3     1  <0>         0.2300
      9 N9         -3.6117    3.7451   53.3318 N.pl3   1  <0>        -0.3900
     10 C10        -4.6571    3.0124   53.7532 C.2     1  <0>         0.2600
     11 N11        -4.2758    2.3250   54.7991 N.2     1  <0>        -0.5400
     12 C12        -2.9996    2.5913   55.0742 C.2     1  <0>         0.2000
     13 N13        -2.5475    3.4517   54.2000 N.2     1  <0>        -0.3100
     14 N14        -3.3530    2.6673   50.6926 N.2     1  <0>        -0.3600
     15 O15        -2.8643    2.3741   49.6217 O.3     1  <0>         0.0900
     16 C16        -0.8284    1.1399   47.4668 C.ar    1  <0>        -0.0900
     17 C17        -1.3165   -0.0172   48.0443 C.ar    1  <0>        -0.0700
     18 C18        -0.4424   -0.9969   48.4767 C.ar    1  <0>        -0.1400
     19 C19         0.9225   -0.8191   48.3315 C.ar    1  <0>         0.1300
     20 F20         1.7776   -1.7762   48.7535 F       1  <0>        -0.1200
     21 C21         1.4112    0.3411   47.7526 C.ar    1  <0>        -0.1300
     22 Br22        3.2755    0.5861   47.5527 Br      1  <0>        -0.0200
     23 C23         0.5345    1.3171   47.3161 C.ar    1  <0>        -0.0500
     24 H24        -2.2565    3.2327   45.1614 H       1  <0>         0.0600
     25 H25        -0.5409    2.7913   45.3352 H       1  <0>         0.0700
     26 H26        -1.7467    1.5409   44.9470 H       1  <0>         0.0700
     27 H27        -0.4604    3.6091   47.9572 H       1  <0>         0.1200
     28 H28        -1.8894    4.3488   47.1962 H       1  <0>         0.1100
     29 H29        -2.8949    5.4798   52.3960 H       1  <0>         0.1300
     30 H30        -4.5855    5.0649   52.0247 H       1  <0>         0.1200
     31 H31        -5.6404    2.9947   53.3067 H       1  <0>         0.2200
     32 H32        -2.4297    2.1625   55.8852 H       1  <0>         0.2200
     33 H33        -2.3815   -0.1559   48.1579 H       1  <0>         0.1400
     34 H34        -0.8243   -1.9006   48.9280 H       1  <0>         0.1500
     35 H35         0.9147    2.2216   46.8649 H       1  <0>         0.1400
@<TRIPOS>BOND
     1     1     2    1
     2     1    24    1
     3     1    25    1
     4     1    26    1
     5     2     3    1
     6     2     4    1
     7     2    16    1
     8     4     5    1
     9     4    27    1
    10     4    28    1
    11     5    15    1
    12     5     6    2
    13     6     7    1
    14     7     8    1
    15     7    14    2
    16     8     9    1
    17     8    29    1
    18     8    30    1
    19     9    13    1
    20     9    10    1
    21    10    11    2
    22    10    31    1
    23    11    12    1
    24    12    13    2
    25    12    32    1
    26    14    15    1
    27    16    23   ar
    28    16    17   ar
    29    17    18   ar
    30    17    33    1
    31    18    19   ar
    32    18    34    1
    33    19    20    1
    34    19    21   ar
    35    21    22    1
    36    21    23   ar
    37    23    35    1
@<TRIPOS>SUBSTRUCTURE
     1 <0>         1 TEMP              0 ****  ****    0 ROOT


##########                                Name:    ZINC000995593866
##########                DOCK_Rotatable_Bonds:                   7
##########                         Heavy_Atoms:                  24
##########                    Molecular_Weight:             342.389
##########                DOCK_Rotatable_Bonds:                   7
##########                       Formal_Charge:                0.03
##########                     HBond_Acceptors:                   8
##########                        HBond_Donors:                   1
##########                         Heavy_Atoms:                  24
##########                          Grid_Score:          -30.476049
##########                     Grid_vdw_energy:          -30.028282
##########                      Grid_es_energy:           -0.447768
##########           Internal_energy_repulsive:            9.883591

@<TRIPOS>MOLECULE
ZINC000995593866
 48 50 1 0 0
SMALL
USER_CHARGES


@<TRIPOS>ATOM
      1 C1          1.0040    0.6721   48.4411 C.3     1  ZINC000995593866   -0.1400
      2 C2         -0.5018    0.5539   48.1969 C.3     1  ZINC000995593866   -0.0800
      3 C3         -0.9124   -0.9177   48.1153 C.3     1  ZINC000995593866   -0.1400
      4 C4         -1.2852    1.2707   49.3177 C.3     1  ZINC000995593866    0.1200
      5 N5         -1.5551    2.6238   48.7785 N.am    1  ZINC000995593866   -0.6300
      6 C6         -1.5138    3.7994   49.4364 C.2     1  ZINC000995593866    0.5400
      7 O7         -1.7612    4.8317   48.8498 O.2     1  ZINC000995593866   -0.5300
      8 C8         -1.1600    3.8311   50.9009 C.3     1  ZINC000995593866   -0.1300
      9 C9          0.3598    3.9129   51.0568 C.3     1  ZINC000995593866   -0.1000
     10 C10         0.8674    5.3194   51.4161 C.3     1  ZINC000995593866   -0.1300
     11 C11         1.8600    4.6323   52.3687 C.3     1  ZINC000995593866   -0.1400
     12 C12         0.8623    3.4642   52.4393 C.3     1  ZINC000995593866   -0.1400
     13 C13        -1.8810    2.3917   47.3521 C.3     1  ZINC000995593866    0.1100
     14 C14        -0.8946    1.2930   46.9009 C.3     1  ZINC000995593866    0.0800
     15 H15        -0.0149    1.7404   46.4382 H       1  ZINC000995593866    0.0700
     16 N16        -1.5505    0.3715   45.9636 N.3     1  ZINC000995593866   -0.6800
     17 C17        -1.7399    1.0024   44.6506 C.3     1  ZINC000995593866    0.1500
     18 C18        -0.5706    0.6697   43.7601 C.2     1  ZINC000995593866    0.1900
     19 N19         0.5784    1.2998   43.7118 N.2     1  ZINC000995593866   -0.4300
     20 C20         1.3053    0.6563   42.7809 C.2     1  ZINC000995593866    0.0900
     21 C21         2.7092    0.9978   42.3525 C.3     1  ZINC000995593866    0.3800
     22 F22         2.8699    0.6935   40.9965 F       1  ZINC000995593866   -0.1800
     23 F23         2.9394    2.3629   42.5546 F       1  ZINC000995593866   -0.1700
     24 N24         0.5749   -0.3142   42.3192 N.2     1  ZINC000995593866   -0.3400
     25 O25        -0.5043   -0.3275   42.8728 O.3     1  ZINC000995593866    0.1000
     26 H26         1.2754    1.7236   48.5353 H       1  ZINC000995593866    0.0600
     27 H27         1.2657    0.1457   49.3589 H       1  ZINC000995593866    0.0600
     28 H28         1.5437    0.2314   47.6029 H       1  ZINC000995593866    0.0600
     29 H29        -0.6522   -1.4198   49.0471 H       1  ZINC000995593866    0.0700
     30 H30        -1.9882   -0.9863   47.9538 H       1  ZINC000995593866    0.0700
     31 H31        -0.3894   -1.3954   47.2868 H       1  ZINC000995593866    0.0600
     32 H32        -2.2203    0.7491   49.5212 H       1  ZINC000995593866    0.0800
     33 H33        -0.6805    1.3357   50.2223 H       1  ZINC000995593866    0.0900
     34 H34        -1.6205    4.7022   51.3671 H       1  ZINC000995593866    0.0900
     35 H35        -1.5265    2.9248   51.3830 H       1  ZINC000995593866    0.0900
     36 H36         0.8958    3.4526   50.2269 H       1  ZINC000995593866    0.1000
     37 H37         1.3467    5.8362   50.5846 H       1  ZINC000995593866    0.0700
     38 H38         0.1260    5.9339   51.9269 H       1  ZINC000995593866    0.0800
     39 H39         2.8070    4.3697   51.8974 H       1  ZINC000995593866    0.0800
     40 H40         1.9883    5.1547   53.3167 H       1  ZINC000995593866    0.0700
     41 H41         0.1196    3.5715   53.2298 H       1  ZINC000995593866    0.0800
     42 H42         1.3374    2.4832   52.4338 H       1  ZINC000995593866    0.0700
     43 H43        -2.9093    2.0452   47.2486 H       1  ZINC000995593866    0.0900
     44 H44        -1.7259    3.3025   46.7737 H       1  ZINC000995593866    0.0800
     45 H45        -1.0310   -0.4893   45.8797 H       1  ZINC000995593866    0.3600
     46 H46        -2.6589    0.6304   44.1978 H       1  ZINC000995593866    0.1200
     47 H47        -1.8070    2.0834   44.7734 H       1  ZINC000995593866    0.0800
     48 H48         3.4200    0.4184   42.9416 H       1  ZINC000995593866    0.1500
@<TRIPOS>BOND
     1     1     2    1
     2     1    26    1
     3     1    27    1
     4     1    28    1
     5     2    14    1
     6     2     3    1
     7     2     4    1
     8     3    29    1
     9     3    30    1
    10     3    31    1
    11     4     5    1
    12     4    32    1
    13     4    33    1
    14     5     6   am
    15     5    13    1
    16     6     7    2
    17     6     8    1
    18     8     9    1
    19     8    34    1
    20     8    35    1
    21     9    12    1
    22     9    10    1
    23     9    36    1
    24    10    11    1
    25    10    37    1
    26    10    38    1
    27    11    12    1
    28    11    39    1
    29    11    40    1
    30    12    41    1
    31    12    42    1
    32    13    14    1
    33    13    43    1
    34    13    44    1
    35    14    15    1
    36    14    16    1
    37    16    17    1
    38    16    45    1
    39    17    18    1
    40    17    46    1
    41    17    47    1
    42    18    25    1
    43    18    19    2
    44    19    20    1
    45    20    21    1
    46    20    24    2
    47    21    22    1
    48    21    23    1
    49    21    48    1
    50    24    25    1
@<TRIPOS>SUBSTRUCTURE
     1 ZINC000995593866        1 TEMP              0 ****  ****    0 ROOT


##########                                Name:    ZINC000851838607
##########                DOCK_Rotatable_Bonds:                  12
##########                         Heavy_Atoms:                  23
##########                    Molecular_Weight:             352.495
##########                DOCK_Rotatable_Bonds:                  12
##########                       Formal_Charge:          0.00999896
##########                     HBond_Acceptors:                   8
##########                        HBond_Donors:                   2
##########                         Heavy_Atoms:                  23
##########                          Grid_Score:          -30.474056
##########                     Grid_vdw_energy:          -30.284910
##########                      Grid_es_energy:           -0.189147
##########           Internal_energy_repulsive:           21.969702

@<TRIPOS>MOLECULE
ZINC000851838607
 55 54 1 0 0
SMALL
USER_CHARGES


@<TRIPOS>ATOM
      1 C1         -0.8100    3.2965   55.3730 C.3     1  ZINC000851838607    0.0300
      2 O2         -1.8376    4.1380   55.9000 O.3     1  ZINC000851838607   -0.3800
      3 C3         -2.8508    4.4813   54.9526 C.3     1  ZINC000851838607    0.0800
      4 C4         -3.6639    3.2339   54.6010 C.3     1  ZINC000851838607   -0.6000
      5 H5         -3.0191    2.5073   54.1068 H       1  ZINC000851838607    0.1400
      6 C6         -4.2362    2.6207   55.8807 C.3     1  ZINC000851838607   -0.1400
      7 S7         -5.0226    3.6912   53.4895 S.o2    1  ZINC000851838607    2.6200
      8 O8         -5.7187    2.5330   53.0501 O.2     1  ZINC000851838607   -0.9400
      9 O9         -5.7232    4.8189   53.9962 O.2     1  ZINC000851838607   -0.9500
     10 N10        -4.2695    4.2566   52.1273 N.am    1  ZINC000851838607   -1.1200
     11 C11        -3.3694    3.3822   51.3715 C.3     1  ZINC000851838607    0.1100
     12 C12        -2.6808    4.1893   50.2691 C.3     1  ZINC000851838607   -0.1400
     13 C13        -1.4580    3.4215   49.7628 C.3     1  ZINC000851838607    0.1700
     14 H14        -1.3889    2.4655   50.2817 H       1  ZINC000851838607    0.1000
     15 N15        -1.5904    3.1872   48.3228 N.am    1  ZINC000851838607   -0.7100
     16 C16        -2.0335    1.9970   47.8716 C.2     1  ZINC000851838607    0.6500
     17 O17        -2.3217    1.1177   48.6593 O.2     1  ZINC000851838607   -0.5600
     18 O18        -2.1567    1.7822   46.5483 O.3     1  ZINC000851838607   -0.3700
     19 C19        -0.9630    1.3659   45.8340 C.3     1  ZINC000851838607    0.1400
     20 C20        -1.3523    0.4140   44.7012 C.3     1  ZINC000851838607   -0.1800
     21 C21        -0.2636    2.5949   45.2498 C.3     1  ZINC000851838607   -0.1400
     22 C22        -0.0152    0.6501   46.7985 C.3     1  ZINC000851838607   -0.1800
     23 C23        -0.1941    4.2406   50.0322 C.3     1  ZINC000851838607   -0.1100
     24 C24         0.0960    4.2514   51.5344 C.3     1  ZINC000851838607   -0.1500
     25 C25         0.9875    3.6141   49.2891 C.3     1  ZINC000851838607   -0.1400
     26 H26        -1.2497    2.3636   55.0200 H       1  ZINC000851838607    0.0400
     27 H27        -0.3163    3.8021   54.5431 H       1  ZINC000851838607    0.0500
     28 H28        -0.0802    3.0817   56.1536 H       1  ZINC000851838607    0.0900
     29 H29        -3.5099    5.2354   55.3828 H       1  ZINC000851838607    0.0700
     30 H30        -2.3851    4.8778   54.0503 H       1  ZINC000851838607    0.0600
     31 H31        -4.8890    1.7866   55.6233 H       1  ZINC000851838607    0.0700
     32 H32        -3.4202    2.2633   56.5086 H       1  ZINC000851838607    0.0900
     33 H33        -4.8071    3.3755   56.4214 H       1  ZINC000851838607    0.0700
     34 H34        -4.4245    5.1667   51.8297 H       1  ZINC000851838607    0.4200
     35 H35        -2.6169    2.9680   52.0426 H       1  ZINC000851838607    0.0700
     36 H36        -3.9427    2.5705   50.9234 H       1  ZINC000851838607    0.0800
     37 H37        -3.3772    4.3473   49.4456 H       1  ZINC000851838607    0.0800
     38 H38        -2.3650    5.1533   50.6679 H       1  ZINC000851838607    0.1000
     39 H39        -1.3593    3.8886   47.6940 H       1  ZINC000851838607    0.4100
     40 H40        -2.0275    0.9239   44.0141 H       1  ZINC000851838607    0.0600
     41 H41        -0.4562    0.1015   44.1652 H       1  ZINC000851838607    0.0700
     42 H42        -1.8506   -0.4615   45.1174 H       1  ZINC000851838607    0.0900
     43 H43         0.0138    3.2731   46.0569 H       1  ZINC000851838607    0.0700
     44 H44         0.6325    2.2824   44.7137 H       1  ZINC000851838607    0.0800
     45 H45        -0.9388    3.1048   44.5627 H       1  ZINC000851838607    0.0700
     46 H46        -0.5134   -0.2255   47.2148 H       1  ZINC000851838607    0.0900
     47 H47         0.8810    0.3376   46.2624 H       1  ZINC000851838607    0.0700
     48 H48         0.2622    1.3283   47.6056 H       1  ZINC000851838607    0.0600
     49 H49        -0.3422    5.2625   49.6833 H       1  ZINC000851838607    0.0700
     50 H50         0.2440    3.2295   51.8833 H       1  ZINC000851838607    0.0600
     51 H51         0.9965    4.8349   51.7263 H       1  ZINC000851838607    0.0600
     52 H52        -0.7458    4.6978   52.0638 H       1  ZINC000851838607    0.0600
     53 H53         0.7809    3.6063   48.2189 H       1  ZINC000851838607    0.0500
     54 H54         1.8880    4.1975   49.4810 H       1  ZINC000851838607    0.0500
     55 H55         1.1356    2.5921   49.6380 H       1  ZINC000851838607    0.0700
@<TRIPOS>BOND
     1     1     2    1
     2     1    26    1
     3     1    27    1
     4     1    28    1
     5     2     3    1
     6     3     4    1
     7     3    29    1
     8     3    30    1
     9     4     5    1
    10     4     6    1
    11     4     7    1
    12     6    31    1
    13     6    32    1
    14     6    33    1
    15     7     8    2
    16     7     9    2
    17     7    10   am
    18    10    11    1
    19    10    34    1
    20    11    12    1
    21    11    35    1
    22    11    36    1
    23    12    13    1
    24    12    37    1
    25    12    38    1
    26    13    14    1
    27    13    15    1
    28    13    23    1
    29    15    16   am
    30    15    39    1
    31    16    17    2
    32    16    18    1
    33    18    19    1
    34    19    20    1
    35    19    21    1
    36    19    22    1
    37    20    40    1
    38    20    41    1
    39    20    42    1
    40    21    43    1
    41    21    44    1
    42    21    45    1
    43    22    46    1
    44    22    47    1
    45    22    48    1
    46    23    24    1
    47    23    25    1
    48    23    49    1
    49    24    50    1
    50    24    51    1
    51    24    52    1
    52    25    53    1
    53    25    54    1
    54    25    55    1
@<TRIPOS>SUBSTRUCTURE
     1 ZINC000851838607        1 TEMP              0 ****  ****    0 ROOT


##########                                Name:    ZINC000558052810
##########                DOCK_Rotatable_Bonds:                   9
##########                         Heavy_Atoms:                  30
##########                    Molecular_Weight:             424.524
##########                DOCK_Rotatable_Bonds:                   9
##########                       Formal_Charge:          -0.0200002
##########                     HBond_Acceptors:                   8
##########                        HBond_Donors:                   1
##########                         Heavy_Atoms:                  30
##########                          Grid_Score:          -30.473225
##########                     Grid_vdw_energy:          -29.720993
##########                      Grid_es_energy:           -0.752232
##########           Internal_energy_repulsive:           12.795396

@<TRIPOS>MOLECULE
ZINC000558052810
 54 56 1 0 0
SMALL
USER_CHARGES


@<TRIPOS>ATOM
      1 C1         -7.7355    0.0190   65.0084 C.3     1  ZINC000558052810   -0.1700
      2 C2         -8.0567   -0.8866   63.8178 C.3     1  ZINC000558052810    0.1100
      3 N3         -8.5654   -0.0743   62.7097 N.am    1  ZINC000558052810   -0.6100
      4 C4         -7.6573    0.3686   61.6489 C.3     1  ZINC000558052810    0.0700
      5 C5         -9.8689    0.2653   62.6663 C.2     1  ZINC000558052810    0.5600
      6 O6        -10.6225   -0.1023   63.5463 O.2     1  ZINC000558052810   -0.5300
      7 C7        -10.3824    1.0851   61.5480 C.ar    1  ZINC000558052810   -0.1100
      8 C8        -10.7453    2.4155   61.7639 C.ar    1  ZINC000558052810   -0.1100
      9 C9        -11.2244    3.1786   60.7182 C.ar    1  ZINC000558052810   -0.1000
     10 C10       -11.3471    2.6299   59.4557 C.ar    1  ZINC000558052810   -0.1300
     11 C11       -10.9889    1.3059   59.2304 C.ar    1  ZINC000558052810    0.1400
     12 N12       -11.1155    0.7551   57.9507 N.am    1  ZINC000558052810   -0.6600
     13 C13       -10.0227    0.3183   57.2939 C.2     1  ZINC000558052810    0.5600
     14 O14        -8.9265    0.4030   57.8138 O.2     1  ZINC000558052810   -0.4800
     15 C15       -10.1561   -0.2619   55.9460 C.ar    1  ZINC000558052810   -0.1900
     16 C16        -9.6228    0.3951   54.8313 C.ar    1  ZINC000558052810   -0.0200
     17 C17        -9.7749   -0.1915   53.5873 C.ar    1  ZINC000558052810   -0.1900
     18 C18       -10.4427   -1.3984   53.4796 C.ar    1  ZINC000558052810    0.1500
     19 N19       -10.9388   -2.0025   54.5413 N.ar    1  ZINC000558052810   -0.4900
     20 C20       -10.8167   -1.4890   55.7565 C.ar    1  ZINC000558052810    0.1600
     21 S21       -11.4998   -2.3396   57.1402 S.3     1  ZINC000558052810    0.0600
     22 C22       -13.2639   -2.1775   56.7694 C.3     1  ZINC000558052810   -0.0700
     23 C23       -14.0701   -2.8015   57.8792 C.2     1  ZINC000558052810   -0.2000
     24 C24       -14.4314   -4.0993   58.0195 C.2     1  ZINC000558052810   -0.0100
     25 C25       -14.1050   -5.2332   57.0821 C.3     1  ZINC000558052810   -0.0800
     26 O26       -15.1367   -4.1761   59.1568 O.3     1  ZINC000558052810    0.1000
     27 N27       -15.2323   -3.0970   59.6942 N.2     1  ZINC000558052810   -0.3600
     28 C28       -14.6189   -2.1690   59.0182 C.2     1  ZINC000558052810    0.0300
     29 C29       -14.5214   -0.7078   59.3743 C.3     1  ZINC000558052810   -0.0800
     30 C30       -10.5004    0.5331   60.2723 C.ar    1  ZINC000558052810   -0.0700
     31 H31        -6.9804    0.7490   64.7164 H       1  ZINC000558052810    0.0600
     32 H32        -8.6401    0.5385   65.3242 H       1  ZINC000558052810    0.0600
     33 H33        -7.3569   -0.5853   65.8327 H       1  ZINC000558052810    0.0700
     34 H34        -7.1520   -1.4061   63.5020 H       1  ZINC000558052810    0.0800
     35 H35        -8.8117   -1.6165   64.1097 H       1  ZINC000558052810    0.0800
     36 H36        -7.5718   -0.4131   60.8940 H       1  ZINC000558052810    0.0600
     37 H37        -8.0499    1.2758   61.1898 H       1  ZINC000558052810    0.0800
     38 H38        -6.6744    0.5724   62.0737 H       1  ZINC000558052810    0.0700
     39 H39       -10.6515    2.8477   62.7491 H       1  ZINC000558052810    0.1400
     40 H40       -11.5047    4.2078   60.8874 H       1  ZINC000558052810    0.1400
     41 H41       -11.7230    3.2319   58.6416 H       1  ZINC000558052810    0.1300
     42 H42       -11.9898    0.6876   57.5362 H       1  ZINC000558052810    0.4100
     43 H43        -9.1055    1.3370   54.9394 H       1  ZINC000558052810    0.1400
     44 H44        -9.3754    0.2896   52.7067 H       1  ZINC000558052810    0.1500
     45 H45       -10.5601   -1.8541   52.5075 H       1  ZINC000558052810    0.1700
     46 H46       -13.5213   -1.1219   56.6825 H       1  ZINC000558052810    0.1000
     47 H47       -13.4858   -2.6840   55.8300 H       1  ZINC000558052810    0.1000
     48 H48       -13.1615   -5.6907   57.3799 H       1  ZINC000558052810    0.0900
     49 H49       -14.8991   -5.9786   57.1231 H       1  ZINC000558052810    0.0900
     50 H50       -14.0181   -4.8503   56.0652 H       1  ZINC000558052810    0.0900
     51 H51       -13.6358   -0.5416   59.9878 H       1  ZINC000558052810    0.0800
     52 H52       -14.4479   -0.1157   58.4622 H       1  ZINC000558052810    0.0800
     53 H53       -15.4100   -0.4093   59.9307 H       1  ZINC000558052810    0.0800
     54 H54       -10.2212   -0.4958   60.0993 H       1  ZINC000558052810    0.1500
@<TRIPOS>BOND
     1     1     2    1
     2     1    31    1
     3     1    32    1
     4     1    33    1
     5     2     3    1
     6     2    34    1
     7     2    35    1
     8     3     4    1
     9     3     5   am
    10     4    36    1
    11     4    37    1
    12     4    38    1
    13     5     6    2
    14     5     7    1
    15     7    30   ar
    16     7     8   ar
    17     8     9   ar
    18     8    39    1
    19     9    10   ar
    20     9    40    1
    21    10    11   ar
    22    10    41    1
    23    11    12    1
    24    11    30   ar
    25    12    13   am
    26    12    42    1
    27    13    14    2
    28    13    15    1
    29    15    20   ar
    30    15    16   ar
    31    16    17   ar
    32    16    43    1
    33    17    18   ar
    34    17    44    1
    35    18    19   ar
    36    18    45    1
    37    19    20   ar
    38    20    21    1
    39    21    22    1
    40    22    23    1
    41    22    46    1
    42    22    47    1
    43    23    28    1
    44    23    24    2
    45    24    25    1
    46    24    26    1
    47    25    48    1
    48    25    49    1
    49    25    50    1
    50    26    27    1
    51    27    28    2
    52    28    29    1
    53    29    51    1
    54    29    52    1
    55    29    53    1
    56    30    54    1
@<TRIPOS>SUBSTRUCTURE
     1 ZINC000558052810        1 TEMP              0 ****  ****    0 ROOT


##########                                Name:    ZINC000496437542
##########                DOCK_Rotatable_Bonds:                   7
##########                         Heavy_Atoms:                  24
##########                    Molecular_Weight:             338.447
##########                DOCK_Rotatable_Bonds:                   7
##########                       Formal_Charge:           0.0400002
##########                     HBond_Acceptors:                   6
##########                        HBond_Donors:                   1
##########                         Heavy_Atoms:                  24
##########                          Grid_Score:          -30.444324
##########                     Grid_vdw_energy:          -29.456440
##########                      Grid_es_energy:           -0.987885
##########           Internal_energy_repulsive:           14.367512

@<TRIPOS>MOLECULE
ZINC000496437542
 54 55 1 0 0
SMALL
USER_CHARGES


@<TRIPOS>ATOM
      1 C1         -7.0325    4.5203   57.7049 C.3     1  ZINC000496437542   -0.1800
      2 C2         -7.3305    3.0216   57.7834 C.3     1  ZINC000496437542    0.1400
      3 C3         -6.8196    2.4690   59.1154 C.3     1  ZINC000496437542   -0.1800
      4 C4         -8.8405    2.7961   57.6832 C.3     1  ZINC000496437542   -0.1400
      5 O5         -6.6653    2.3380   56.6887 O.3     1  ZINC000496437542   -0.3600
      6 C6         -6.4769    3.0388   55.5547 C.2     1  ZINC000496437542    0.6600
      7 O7         -7.4230    3.3027   54.8393 O.2     1  ZINC000496437542   -0.5600
      8 N8         -5.2389    3.4476   55.2129 N.am    1  ZINC000496437542   -0.6000
      9 C9         -4.0780    3.1399   56.0631 C.3     1  ZINC000496437542    0.0800
     10 C10        -2.9840    2.5242   55.1833 C.3     1  ZINC000496437542    0.0500
     11 O11        -2.7423    3.3805   54.0644 O.3     1  ZINC000496437542   -0.3700
     12 C12        -3.8689    3.5461   53.2000 C.3     1  ZINC000496437542    0.0700
     13 H13        -4.1972    2.5714   52.8390 H       1  ZINC000496437542    0.0700
     14 C14        -3.4761    4.4255   52.0113 C.3     1  ZINC000496437542    0.1300
     15 N15        -3.3269    3.5923   50.8156 N.am    1  ZINC000496437542   -0.7200
     16 C16        -2.3328    3.8415   49.9403 C.2     1  ZINC000496437542    0.5600
     17 O17        -1.5588    4.7571   50.1438 O.2     1  ZINC000496437542   -0.5400
     18 C18        -2.1840    3.0060   48.7388 C.2     1  ZINC000496437542   -0.1900
     19 C19        -1.8265    3.5562   47.5986 C.2     1  ZINC000496437542   -0.0600
     20 C20        -1.6708    2.7057   46.3556 C.3     1  ZINC000496437542   -0.1000
     21 C21        -0.4138    1.8463   46.5074 C.3     1  ZINC000496437542   -0.1100
     22 C22        -0.7242    0.5647   47.2588 C.3     1  ZINC000496437542   -0.1200
     23 C23        -1.1043    0.7822   48.7121 C.3     1  ZINC000496437542   -0.1200
     24 C24        -2.4371    1.5154   48.8213 C.3     1  ZINC000496437542   -0.0800
     25 C25        -5.0074    4.2093   53.9753 C.3     1  ZINC000496437542    0.1000
     26 H26        -5.9568    4.6810   57.7763 H       1  ZINC000496437542    0.0900
     27 H27        -7.3965    4.9139   56.7560 H       1  ZINC000496437542    0.0600
     28 H28        -7.5319    5.0335   58.5267 H       1  ZINC000496437542    0.0700
     29 H29        -7.3190    2.9823   59.9372 H       1  ZINC000496437542    0.0700
     30 H30        -7.0320    1.4014   59.1714 H       1  ZINC000496437542    0.0600
     31 H31        -5.7439    2.6298   59.1869 H       1  ZINC000496437542    0.0900
     32 H32        -9.2045    3.1897   56.7341 H       1  ZINC000496437542    0.0700
     33 H33        -9.0528    1.7284   57.7390 H       1  ZINC000496437542    0.0700
     34 H34        -9.3399    3.3093   58.5049 H       1  ZINC000496437542    0.0800
     35 H35        -3.7069    4.0558   56.5232 H       1  ZINC000496437542    0.0800
     36 H36        -4.3683    2.4307   56.8383 H       1  ZINC000496437542    0.1000
     37 H37        -2.0677    2.4163   55.7638 H       1  ZINC000496437542    0.1100
     38 H38        -3.3090    1.5458   54.8296 H       1  ZINC000496437542    0.0600
     39 H39        -4.2517    5.1720   51.8395 H       1  ZINC000496437542    0.0900
     40 H40        -2.5317    4.9257   52.2257 H       1  ZINC000496437542    0.0800
     41 H41        -3.9435    2.8612   50.6539 H       1  ZINC000496437542    0.4000
     42 H42        -1.6435    4.6195   47.5488 H       1  ZINC000496437542    0.1300
     43 H43        -2.5429    2.0618   46.2413 H       1  ZINC000496437542    0.0800
     44 H44        -1.5709    3.3494   45.4818 H       1  ZINC000496437542    0.0800
     45 H45        -0.0278    1.5978   45.5188 H       1  ZINC000496437542    0.0700
     46 H46         0.3417    2.4093   47.0555 H       1  ZINC000496437542    0.0700
     47 H47        -1.5478    0.0575   46.7561 H       1  ZINC000496437542    0.0600
     48 H48         0.1527   -0.0816   47.2216 H       1  ZINC000496437542    0.0600
     49 H49        -1.1840   -0.1839   49.2105 H       1  ZINC000496437542    0.0700
     50 H50        -0.3302    1.3740   49.2005 H       1  ZINC000496437542    0.0600
     51 H51        -2.9089    1.2772   49.7746 H       1  ZINC000496437542    0.0700
     52 H52        -3.0892    1.2136   48.0016 H       1  ZINC000496437542    0.0800
     53 H53        -5.9129    4.2107   53.3685 H       1  ZINC000496437542    0.1100
     54 H54        -4.7322    5.2335   54.2272 H       1  ZINC000496437542    0.0900
@<TRIPOS>BOND
     1     1     2    1
     2     1    26    1
     3     1    27    1
     4     1    28    1
     5     2     3    1
     6     2     4    1
     7     2     5    1
     8     3    29    1
     9     3    30    1
    10     3    31    1
    11     4    32    1
    12     4    33    1
    13     4    34    1
    14     5     6    1
    15     6     7    2
    16     6     8   am
    17     8    25    1
    18     8     9    1
    19     9    10    1
    20     9    35    1
    21     9    36    1
    22    10    11    1
    23    10    37    1
    24    10    38    1
    25    11    12    1
    26    12    13    1
    27    12    14    1
    28    12    25    1
    29    14    15    1
    30    14    39    1
    31    14    40    1
    32    15    16   am
    33    15    41    1
    34    16    17    2
    35    16    18    1
    36    18    24    1
    37    18    19    2
    38    19    20    1
    39    19    42    1
    40    20    21    1
    41    20    43    1
    42    20    44    1
    43    21    22    1
    44    21    45    1
    45    21    46    1
    46    22    23    1
    47    22    47    1
    48    22    48    1
    49    23    24    1
    50    23    49    1
    51    23    50    1
    52    24    51    1
    53    24    52    1
    54    25    53    1
    55    25    54    1
@<TRIPOS>SUBSTRUCTURE
     1 ZINC000496437542        1 TEMP              0 ****  ****    0 ROOT


##########                                Name:    ZINC000504243286
##########                DOCK_Rotatable_Bonds:                   7
##########                         Heavy_Atoms:                  29
##########                    Molecular_Weight:             408.337
##########                DOCK_Rotatable_Bonds:                   7
##########                       Formal_Charge:           0.0299994
##########                     HBond_Acceptors:                  11
##########                        HBond_Donors:                   3
##########                         Heavy_Atoms:                  29
##########                          Grid_Score:          -30.437042
##########                     Grid_vdw_energy:          -29.883078
##########                      Grid_es_energy:           -0.553964
##########           Internal_energy_repulsive:           13.960936

@<TRIPOS>MOLECULE
ZINC000504243286
 44 46 1 0 0
SMALL
USER_CHARGES


@<TRIPOS>ATOM
      1 O1         -1.6886    2.8058   44.9674 O.2     1  ZINC000504243286   -0.5200
      2 C2         -1.2673    2.2664   45.9688 C.2     1  ZINC000504243286    0.5200
      3 C3         -1.8305    2.6351   47.3170 C.3     1  ZINC000504243286   -0.1600
      4 C4         -1.3112    4.0148   47.7266 C.3     1  ZINC000504243286    0.1300
      5 N5         -2.0576    4.4907   48.8940 N.pl3   1  ZINC000504243286   -0.7200
      6 C6         -1.6054    4.1919   50.1813 C.ar    1  ZINC000504243286    0.3100
      7 C7         -0.5340    3.3263   50.3592 C.ar    1  ZINC000504243286   -0.1900
      8 C8         -0.0890    3.0333   51.6336 C.ar    1  ZINC000504243286    0.0200
      9 C9         -0.7090    3.6009   52.7316 C.ar    1  ZINC000504243286   -0.2400
     10 C10        -0.2204    3.2794   54.1204 C.3     1  ZINC000504243286    0.5200
     11 F11        -0.9166    2.1713   54.6149 F       1  ZINC000504243286   -0.1700
     12 F12         1.1477    2.9897   54.0781 F       1  ZINC000504243286   -0.1700
     13 F13        -0.4385    4.3788   54.9576 F       1  ZINC000504243286   -0.1700
     14 C14        -1.7761    4.4634   52.5579 C.ar    1  ZINC000504243286    0.0400
     15 C15        -2.2226    4.7646   51.2864 C.ar    1  ZINC000504243286   -0.1200
     16 N16        -3.3647    5.6876   51.1016 N.pl3   1  ZINC000504243286    0.0400
     17 O17        -3.3688    6.4725   50.1702 O.2     1  ZINC000504243286   -0.1700
     18 O18        -4.3004    5.6624   51.8809 O.2     1  ZINC000504243286   -0.1400
     19 N19        -0.2994    1.3332   45.8750 N.am    1  ZINC000504243286   -0.6700
     20 C20         0.2241    0.9905   44.6218 C.ar    1  ZINC000504243286    0.1200
     21 C21        -0.5314    0.2383   43.7322 C.ar    1  ZINC000504243286   -0.1000
     22 C22        -0.0191   -0.1003   42.4975 C.ar    1  ZINC000504243286   -0.1200
     23 C23         1.2619    0.3096   42.1332 C.ar    1  ZINC000504243286    0.1300
     24 N24         1.9889    0.0947   40.9598 N.am    1  ZINC000504243286   -0.6600
     25 C25         3.2053    0.6637   41.0041 C.2     1  ZINC000504243286    0.5300
     26 O26         4.0449    0.6380   40.1290 O.2     1  ZINC000504243286   -0.5000
     27 C27         3.3311    1.3434   42.3509 C.3     1  ZINC000504243286   -0.1200
     28 C28         2.0106    1.0620   43.0301 C.ar    1  ZINC000504243286   -0.1200
     29 C29         1.5004    1.4066   44.2605 C.ar    1  ZINC000504243286   -0.0600
     30 H30        -2.9188    2.6581   47.2622 H       1  ZINC000504243286    0.1100
     31 H31        -1.5193    1.8960   48.0552 H       1  ZINC000504243286    0.1100
     32 H32        -0.2524    3.9452   47.9760 H       1  ZINC000504243286    0.0800
     33 H33        -1.4448    4.7132   46.9005 H       1  ZINC000504243286    0.0900
     34 H34        -2.8658    5.0131   48.7730 H       1  ZINC000504243286    0.4100
     35 H35        -0.0495    2.8824   49.5021 H       1  ZINC000504243286    0.1600
     36 H36         0.7439    2.3600   51.7728 H       1  ZINC000504243286    0.1600
     37 H37        -2.2582    4.9050   53.4176 H       1  ZINC000504243286    0.1600
     38 H38         0.0347    0.8989   46.6754 H       1  ZINC000504243286    0.4200
     39 H39        -1.5247   -0.0832   44.0086 H       1  ZINC000504243286    0.1400
     40 H40        -0.6125   -0.6855   41.8107 H       1  ZINC000504243286    0.1300
     41 H41         1.6541   -0.4074   40.2004 H       1  ZINC000504243286    0.4100
     42 H42         4.1535    0.9114   42.9212 H       1  ZINC000504243286    0.1300
     43 H43         3.4748    2.4165   42.2250 H       1  ZINC000504243286    0.1300
     44 H44         2.0916    1.9961   44.9456 H       1  ZINC000504243286    0.1500
@<TRIPOS>BOND
     1     1     2    2
     2     2     3    1
     3     2    19   am
     4     3     4    1
     5     3    30    1
     6     3    31    1
     7     4     5    1
     8     4    32    1
     9     4    33    1
    10     5     6    1
    11     5    34    1
    12     6    15   ar
    13     6     7   ar
    14     7     8   ar
    15     7    35    1
    16     8     9   ar
    17     8    36    1
    18     9    10    1
    19     9    14   ar
    20    10    11    1
    21    10    12    1
    22    10    13    1
    23    14    15   ar
    24    14    37    1
    25    15    16    1
    26    16    17    2
    27    16    18    2
    28    19    20    1
    29    19    38    1
    30    20    29   ar
    31    20    21   ar
    32    21    22   ar
    33    21    39    1
    34    22    23   ar
    35    22    40    1
    36    23    28   ar
    37    23    24    1
    38    24    25   am
    39    24    41    1
    40    25    26    2
    41    25    27    1
    42    27    28    1
    43    27    42    1
    44    27    43    1
    45    28    29   ar
    46    29    44    1
@<TRIPOS>SUBSTRUCTURE
     1 ZINC000504243286        1 TEMP              0 ****  ****    0 ROOT


##########                                Name:    ZINC000432058199
##########                DOCK_Rotatable_Bonds:                   5
##########                         Heavy_Atoms:                  30
##########                    Molecular_Weight:             406.441
##########                DOCK_Rotatable_Bonds:                   5
##########                       Formal_Charge:        -4.02331e-07
##########                     HBond_Acceptors:                   8
##########                        HBond_Donors:                   1
##########                         Heavy_Atoms:                  30
##########                          Grid_Score:          -30.426460
##########                     Grid_vdw_energy:          -28.233835
##########                      Grid_es_energy:           -2.192626
##########           Internal_energy_repulsive:           18.138269

@<TRIPOS>MOLECULE
ZINC000432058199
 52 55 1 0 0
SMALL
USER_CHARGES


@<TRIPOS>ATOM
      1 C1          4.6421    0.4914   39.8960 C.3     1  ZINC000432058199    0.0300
      2 O2          4.1936    0.9607   41.1691 O.3     1  ZINC000432058199   -0.3100
      3 C3          2.9441    0.5928   41.5570 C.ar    1  ZINC000432058199    0.1300
      4 C4          2.1661   -0.2029   40.7276 C.ar    1  ZINC000432058199   -0.1900
      5 C5          0.8947   -0.5794   41.1184 C.ar    1  ZINC000432058199   -0.0800
      6 C6          0.3918   -0.1660   42.3356 C.ar    1  ZINC000432058199   -0.1100
      7 C7          1.1668    0.6327   43.1745 C.ar    1  ZINC000432058199    0.0100
      8 C8          0.6286    1.0781   44.4841 C.2     1  ZINC000432058199    0.2100
      9 N9         -0.5861    0.8883   44.9292 N.2     1  ZINC000432058199   -0.3700
     10 O10        -0.7060    1.3746   46.0339 O.3     1  ZINC000432058199    0.1200
     11 C11         0.4457    1.9365   46.4141 C.2     1  ZINC000432058199    0.1600
     12 C12         0.7089    2.6437   47.7185 C.3     1  ZINC000432058199    0.2500
     13 H13         0.9903    3.6780   47.5208 H       1  ZINC000432058199    0.1500
     14 C14         1.8461    1.9386   48.4605 C.3     1  ZINC000432058199   -0.1700
     15 N15        -0.5025    2.6161   48.5420 N.am    1  ZINC000432058199   -0.5800
     16 C16        -1.0622    1.4981   49.0184 C.2     1  ZINC000432058199    0.7000
     17 O17        -0.6222    0.3833   48.8164 O.2     1  ZINC000432058199   -0.5100
     18 N18        -2.1661    1.7459   49.7461 N.am    1  ZINC000432058199   -0.7200
     19 C19        -2.3518    3.2072   49.7458 C.3     1  ZINC000432058199    0.1400
     20 H20        -3.3012    3.4731   49.2810 H       1  ZINC000432058199    0.1400
     21 C21        -2.2798    3.7513   51.1494 C.ar    1  ZINC000432058199   -0.1000
     22 C22        -1.0798    3.7366   51.8355 C.ar    1  ZINC000432058199   -0.1000
     23 C23        -1.0138    4.2355   53.1230 C.ar    1  ZINC000432058199   -0.0800
     24 C24         0.2942    4.2192   53.8713 C.3     1  ZINC000432058199   -0.1200
     25 C25        -2.1474    4.7500   53.7240 C.ar    1  ZINC000432058199   -0.1100
     26 C26        -3.3473    4.7649   53.0376 C.ar    1  ZINC000432058199   -0.0800
     27 C27        -4.5833    5.3253   53.6929 C.3     1  ZINC000432058199   -0.1200
     28 C28        -3.4124    4.2699   51.7486 C.ar    1  ZINC000432058199   -0.1000
     29 C29        -1.1875    3.7141   48.9180 C.2     1  ZINC000432058199    0.5300
     30 O30        -0.9294    4.8670   48.6459 O.2     1  ZINC000432058199   -0.4500
     31 N31         1.3044    1.7511   45.4426 N.2     1  ZINC000432058199   -0.4500
     32 C32         2.4493    1.0073   42.7829 C.ar    1  ZINC000432058199   -0.1200
     33 H33         5.6522    0.8562   39.7095 H       1  ZINC000432058199    0.1000
     34 H34         4.6427   -0.5986   39.8901 H       1  ZINC000432058199    0.0600
     35 H35         3.9736    0.8586   39.1173 H       1  ZINC000432058199    0.0600
     36 H36         2.5551   -0.5285   39.7741 H       1  ZINC000432058199    0.1400
     37 H37         0.2929   -1.1984   40.4693 H       1  ZINC000432058199    0.1400
     38 H38        -0.6021   -0.4613   42.6378 H       1  ZINC000432058199    0.1400
     39 H39         1.5647    0.9043   48.6583 H       1  ZINC000432058199    0.0900
     40 H40         2.7474    1.9591   47.8478 H       1  ZINC000432058199    0.0900
     41 H41         2.0364    2.4502   49.4040 H       1  ZINC000432058199    0.0900
     42 H42        -2.7302    1.0901   50.1850 H       1  ZINC000432058199    0.4500
     43 H43        -0.1941    3.3351   51.3659 H       1  ZINC000432058199    0.1200
     44 H44         0.8342    5.1464   53.6793 H       1  ZINC000432058199    0.0700
     45 H45         0.1004    4.1262   54.9398 H       1  ZINC000432058199    0.0700
     46 H46         0.8941    3.3733   53.5359 H       1  ZINC000432058199    0.0700
     47 H47        -2.0958    5.1397   54.7298 H       1  ZINC000432058199    0.1300
     48 H48        -4.6566    6.3914   53.4785 H       1  ZINC000432058199    0.0700
     49 H49        -5.4641    4.8149   53.3035 H       1  ZINC000432058199    0.0700
     50 H50        -4.5230    5.1747   54.7708 H       1  ZINC000432058199    0.0700
     51 H51        -4.3498    4.2816   51.2124 H       1  ZINC000432058199    0.1300
     52 H52         3.0537    1.6262   43.4295 H       1  ZINC000432058199    0.1400
@<TRIPOS>BOND
     1     1     2    1
     2     1    33    1
     3     1    34    1
     4     1    35    1
     5     2     3    1
     6     3    32   ar
     7     3     4   ar
     8     4     5   ar
     9     4    36    1
    10     5     6   ar
    11     5    37    1
    12     6     7   ar
    13     6    38    1
    14     7     8    1
    15     7    32   ar
    16     8    31    1
    17     8     9    2
    18     9    10    1
    19    10    11    1
    20    11    12    1
    21    11    31    2
    22    12    13    1
    23    12    14    1
    24    12    15    1
    25    14    39    1
    26    14    40    1
    27    14    41    1
    28    15    29   am
    29    15    16   am
    30    16    17    2
    31    16    18   am
    32    18    19    1
    33    18    42    1
    34    19    20    1
    35    19    21    1
    36    19    29    1
    37    21    28   ar
    38    21    22   ar
    39    22    23   ar
    40    22    43    1
    41    23    24    1
    42    23    25   ar
    43    24    44    1
    44    24    45    1
    45    24    46    1
    46    25    26   ar
    47    25    47    1
    48    26    27    1
    49    26    28   ar
    50    27    48    1
    51    27    49    1
    52    27    50    1
    53    28    51    1
    54    29    30    2
    55    32    52    1
@<TRIPOS>SUBSTRUCTURE
     1 ZINC000432058199        1 TEMP              0 ****  ****    0 ROOT


##########                                Name:    ZINC000050607728
##########                DOCK_Rotatable_Bonds:                  10
##########                         Heavy_Atoms:                  31
##########                    Molecular_Weight:             416.476
##########                DOCK_Rotatable_Bonds:                  10
##########                       Formal_Charge:          -0.0199995
##########                     HBond_Acceptors:                   6
##########                        HBond_Donors:                   1
##########                         Heavy_Atoms:                  31
##########                          Grid_Score:          -30.417698
##########                     Grid_vdw_energy:          -29.331383
##########                      Grid_es_energy:           -1.086315
##########           Internal_energy_repulsive:           13.290387

@<TRIPOS>MOLECULE
ZINC000050607728
 55 57 1 0 0
SMALL
USER_CHARGES


@<TRIPOS>ATOM
      1 C1          1.5519   -1.8246   48.7592 C.3     1  ZINC000050607728    0.0800
      2 N2          0.6265   -0.8248   48.2206 N.am    1  ZINC000050607728   -0.6200
      3 C3         -0.8135   -0.9580   48.4552 C.3     1  ZINC000050607728    0.0700
      4 C4          1.0998    0.2175   47.5093 C.2     1  ZINC000050607728    0.5600
      5 O5          2.2945    0.3281   47.3147 O.2     1  ZINC000050607728   -0.5300
      6 C6          0.1659    1.2265   46.9658 C.ar    1  ZINC000050607728   -0.1400
      7 C7         -0.5662    0.9530   45.8095 C.ar    1  ZINC000050607728   -0.0800
      8 C8         -1.4365    1.8988   45.3077 C.ar    1  ZINC000050607728   -0.1300
      9 C9         -1.5838    3.1163   45.9478 C.ar    1  ZINC000050607728   -0.0700
     10 C10        -0.8605    3.3941   47.0944 C.ar    1  ZINC000050607728   -0.1100
     11 C11        -1.0270    4.7233   47.7849 C.3     1  ZINC000050607728    0.1100
     12 O12        -1.4450    4.5062   49.1583 O.3     1  ZINC000050607728   -0.3400
     13 C13        -1.6885    5.5975   49.9009 C.2     1  ZINC000050607728    0.4700
     14 O14        -1.9707    6.6427   49.3644 O.2     1  ZINC000050607728   -0.5000
     15 C15        -1.6098    5.5192   51.4038 C.3     1  ZINC000050607728    0.2000
     16 H16        -1.6641    6.5237   51.8234 H       1  ZINC000050607728    0.1400
     17 N17        -2.7265    4.7174   51.9102 N.am    1  ZINC000050607728   -0.7100
     18 C18        -3.3572    5.0809   53.0444 C.2     1  ZINC000050607728    0.5700
     19 O19        -3.0006    6.0747   53.6465 O.2     1  ZINC000050607728   -0.5200
     20 C20        -4.4831    4.2708   53.5563 C.ar    1  ZINC000050607728   -0.1400
     21 C21        -5.1239    4.6317   54.7426 C.ar    1  ZINC000050607728   -0.0800
     22 C22        -6.1741    3.8717   55.2145 C.ar    1  ZINC000050607728   -0.1300
     23 C23        -6.5923    2.7538   54.5148 C.ar    1  ZINC000050607728   -0.0900
     24 C24        -5.9611    2.3903   53.3385 C.ar    1  ZINC000050607728   -0.1300
     25 C25        -4.9136    3.1451   52.8524 C.ar    1  ZINC000050607728   -0.0600
     26 C26        -0.3073    4.8767   51.8058 C.ar    1  ZINC000050607728   -0.1000
     27 C27        -0.1757    3.5011   51.7719 C.ar    1  ZINC000050607728   -0.1000
     28 C28         1.0192    2.9117   52.1406 C.ar    1  ZINC000050607728   -0.1200
     29 C29         2.0825    3.6980   52.5430 C.ar    1  ZINC000050607728   -0.1100
     30 C30         1.9511    5.0737   52.5762 C.ar    1  ZINC000050607728   -0.1200
     31 C31         0.7577    5.6633   52.2033 C.ar    1  ZINC000050607728   -0.0800
     32 C32         0.0082    2.4549   47.6099 C.ar    1  ZINC000050607728   -0.0400
     33 H33         1.6914   -2.6215   48.0286 H       1  ZINC000050607728    0.0600
     34 H34         2.5120   -1.3541   48.9713 H       1  ZINC000050607728    0.0800
     35 H35         1.1410   -2.2423   49.6783 H       1  ZINC000050607728    0.0700
     36 H36        -1.0670   -0.5162   49.4189 H       1  ZINC000050607728    0.0600
     37 H37        -1.3596   -0.4433   47.6646 H       1  ZINC000050607728    0.0800
     38 H38        -1.0853   -2.0136   48.4566 H       1  ZINC000050607728    0.0700
     39 H39        -0.4516    0.0031   45.3084 H       1  ZINC000050607728    0.1400
     40 H40        -2.0037    1.6884   44.4130 H       1  ZINC000050607728    0.1400
     41 H41        -2.2660    3.8534   45.5507 H       1  ZINC000050607728    0.1300
     42 H42        -0.0782    5.2596   47.7743 H       1  ZINC000050607728    0.0900
     43 H43        -1.7826    5.3112   47.2637 H       1  ZINC000050607728    0.0900
     44 H44        -3.0120    3.9250   51.4291 H       1  ZINC000050607728    0.4100
     45 H45        -4.7980    5.5038   55.2901 H       1  ZINC000050607728    0.1300
     46 H46        -6.6708    4.1499   56.1323 H       1  ZINC000050607728    0.1300
     47 H47        -7.4148    2.1620   54.8887 H       1  ZINC000050607728    0.1300
     48 H48        -6.2920    1.5162   52.7972 H       1  ZINC000050607728    0.1300
     49 H49        -4.4220    2.8604   51.9338 H       1  ZINC000050607728    0.1400
     50 H50        -1.0064    2.8867   51.4574 H       1  ZINC000050607728    0.1200
     51 H51         1.1218    1.8369   52.1146 H       1  ZINC000050607728    0.1200
     52 H52         3.0157    3.2375   52.8318 H       1  ZINC000050607728    0.1200
     53 H53         2.7819    5.6881   52.8909 H       1  ZINC000050607728    0.1300
     54 H54         0.6551    6.7381   52.2292 H       1  ZINC000050607728    0.1300
     55 H55         0.5718    2.6727   48.5051 H       1  ZINC000050607728    0.1300
@<TRIPOS>BOND
     1     1     2    1
     2     1    33    1
     3     1    34    1
     4     1    35    1
     5     2     3    1
     6     2     4   am
     7     3    36    1
     8     3    37    1
     9     3    38    1
    10     4     5    2
    11     4     6    1
    12     6    32   ar
    13     6     7   ar
    14     7     8   ar
    15     7    39    1
    16     8     9   ar
    17     8    40    1
    18     9    10   ar
    19     9    41    1
    20    10    11    1
    21    10    32   ar
    22    11    12    1
    23    11    42    1
    24    11    43    1
    25    12    13    1
    26    13    14    2
    27    13    15    1
    28    15    16    1
    29    15    17    1
    30    15    26    1
    31    17    18   am
    32    17    44    1
    33    18    19    2
    34    18    20    1
    35    20    25   ar
    36    20    21   ar
    37    21    22   ar
    38    21    45    1
    39    22    23   ar
    40    22    46    1
    41    23    24   ar
    42    23    47    1
    43    24    25   ar
    44    24    48    1
    45    25    49    1
    46    26    31   ar
    47    26    27   ar
    48    27    28   ar
    49    27    50    1
    50    28    29   ar
    51    28    51    1
    52    29    30   ar
    53    29    52    1
    54    30    31   ar
    55    30    53    1
    56    31    54    1
    57    32    55    1
@<TRIPOS>SUBSTRUCTURE
     1 ZINC000050607728        1 TEMP              0 ****  ****    0 ROOT


##########                                Name:    ZINC001345966764
##########                DOCK_Rotatable_Bonds:                  10
##########                         Heavy_Atoms:                  22
##########                    Molecular_Weight:             333.258
##########                DOCK_Rotatable_Bonds:                  10
##########                       Formal_Charge:           0.0099997
##########                     HBond_Acceptors:                  11
##########                        HBond_Donors:                   4
##########                         Heavy_Atoms:                  22
##########                          Grid_Score:          -30.405266
##########                     Grid_vdw_energy:          -25.943352
##########                      Grid_es_energy:           -4.461913
##########           Internal_energy_repulsive:            7.738608

@<TRIPOS>MOLECULE
ZINC001345966764
 38 38 1 0 0
SMALL
USER_CHARGES


@<TRIPOS>ATOM
      1 N1         -2.2375    2.5624   56.6170 N.3     1  ZINC001345966764   -0.8400
      2 C2         -2.9102    2.2973   55.3382 C.3     1  ZINC001345966764    0.0200
      3 C3         -4.0116    3.3358   55.1164 C.3     1  ZINC001345966764    0.2800
      4 F4         -4.9232    3.2823   56.1763 F       1  ZINC001345966764   -0.1900
      5 F5         -3.4431    4.6126   55.0543 F       1  ZINC001345966764   -0.1800
      6 C6         -4.7379    3.0365   53.8035 C.3     1  ZINC001345966764    0.0800
      7 N7         -3.7672    2.9955   52.7069 N.am    1  ZINC001345966764   -0.7000
      8 C8         -3.5562    4.0923   51.9525 C.2     1  ZINC001345966764    0.5100
      9 O9         -4.1713    5.1131   52.1805 O.2     1  ZINC001345966764   -0.5100
     10 C10        -2.5647    4.0511   50.8350 C.2     1  ZINC001345966764    0.5100
     11 O11        -2.3657    5.0421   50.1636 O.2     1  ZINC001345966764   -0.5100
     12 N12        -1.8917    2.9132   50.5729 N.am    1  ZINC001345966764   -0.7000
     13 C13        -0.9184    2.8733   49.4786 C.3     1  ZINC001345966764    0.1200
     14 C14        -1.6543    2.7101   48.1472 C.3     1  ZINC001345966764    0.0600
     15 H15        -2.7296    2.8106   48.2940 H       1  ZINC001345966764    0.0900
     16 C16        -1.1515    3.7520   47.1236 C.3     1  ZINC001345966764   -0.1400
     17 C17        -1.1507    2.9885   45.7803 C.3     1  ZINC001345966764   -0.1500
     18 C18        -1.6530    1.5756   46.1513 C.3     1  ZINC001345966764    0.0300
     19 H19        -2.7284    1.5009   45.9905 H       1  ZINC001345966764    0.1200
     20 C20        -0.9176    0.5158   45.3285 C.3     1  ZINC001345966764    0.4600
     21 F21        -0.7864    0.9588   44.0080 F       1  ZINC001345966764   -0.1700
     22 F22         0.3514    0.2983   45.8757 F       1  ZINC001345966764   -0.1700
     23 F23        -1.6454   -0.6788   45.3495 F       1  ZINC001345966764   -0.1700
     24 O24        -1.3452    1.4292   47.5557 O.3     1  ZINC001345966764   -0.3500
     25 H25        -2.8878    2.5053   57.3864 H       1  ZINC001345966764    0.3500
     26 H26        -1.4597    1.9343   56.7535 H       1  ZINC001345966764    0.3600
     27 H27        -2.1849    2.3580   54.5267 H       1  ZINC001345966764    0.1100
     28 H28        -3.3498    1.3001   55.3588 H       1  ZINC001345966764    0.0700
     29 H29        -5.2420    2.0731   53.8786 H       1  ZINC001345966764    0.1100
     30 H30        -5.4732    3.8172   53.6089 H       1  ZINC001345966764    0.1100
     31 H31        -3.2764    2.1792   52.5239 H       1  ZINC001345966764    0.4200
     32 H32        -2.0515    2.1207   51.1088 H       1  ZINC001345966764    0.4200
     33 H33        -0.3470    3.8015   49.4666 H       1  ZINC001345966764    0.1000
     34 H34        -0.2413    2.0318   49.6251 H       1  ZINC001345966764    0.0900
     35 H35        -1.8317    4.6026   47.0790 H       1  ZINC001345966764    0.0900
     36 H36        -0.1435    4.0807   47.3767 H       1  ZINC001345966764    0.0900
     37 H37        -1.8303    3.4617   45.0716 H       1  ZINC001345966764    0.1000
     38 H38        -0.1422    2.9397   45.3694 H       1  ZINC001345966764    0.0900
@<TRIPOS>BOND
     1     1     2    1
     2     1    25    1
     3     1    26    1
     4     2     3    1
     5     2    27    1
     6     2    28    1
     7     3     4    1
     8     3     5    1
     9     3     6    1
    10     6     7    1
    11     6    29    1
    12     6    30    1
    13     7     8   am
    14     7    31    1
    15     8     9    2
    16     8    10    1
    17    10    11    2
    18    10    12   am
    19    12    13    1
    20    12    32    1
    21    13    14    1
    22    13    33    1
    23    13    34    1
    24    14    15    1
    25    14    24    1
    26    14    16    1
    27    16    17    1
    28    16    35    1
    29    16    36    1
    30    17    18    1
    31    17    37    1
    32    17    38    1
    33    18    19    1
    34    18    20    1
    35    18    24    1
    36    20    21    1
    37    20    22    1
    38    20    23    1
@<TRIPOS>SUBSTRUCTURE
     1 ZINC001345966764        1 TEMP              0 ****  ****    0 ROOT


##########                                Name:    ZINC000439870054
##########                DOCK_Rotatable_Bonds:                   5
##########                         Heavy_Atoms:                  27
##########                    Molecular_Weight:             421.974
##########                DOCK_Rotatable_Bonds:                   5
##########                       Formal_Charge:           0.0200003
##########                     HBond_Acceptors:                   9
##########                        HBond_Donors:                   0
##########                         Heavy_Atoms:                  27
##########                          Grid_Score:          -30.404381
##########                     Grid_vdw_energy:          -29.204382
##########                      Grid_es_energy:           -1.199998
##########           Internal_energy_repulsive:           61.253681

@<TRIPOS>MOLECULE
ZINC000439870054
 47 50 1 0 0
SMALL
USER_CHARGES


@<TRIPOS>ATOM
      1 C1         -7.6603    1.5147   67.0773 C.3     1  ZINC000439870054   -0.1400
      2 C2         -8.0236    0.1670   66.4507 C.3     1  ZINC000439870054    0.0000
      3 C3         -8.4580   -0.8056   67.5491 C.3     1  ZINC000439870054   -0.1400
      4 C4         -9.1536    0.3565   65.4718 C.2     1  ZINC000439870054    0.1900
      5 N5        -10.3401    0.8385   65.7385 N.2     1  ZINC000439870054   -0.2900
      6 N6        -11.0542    0.8567   64.6652 N.2     1  ZINC000439870054   -0.2700
      7 C7        -10.3582    0.3879   63.6760 C.2     1  ZINC000439870054    0.1600
      8 C8        -10.7712    0.2033   62.2357 C.3     1  ZINC000439870054    0.2400
      9 H9        -11.4852   -0.6164   62.1555 H       1  ZINC000439870054    0.1100
     10 C10       -11.3963    1.4938   61.7022 C.3     1  ZINC000439870054   -0.1300
     11 N11        -9.5486   -0.1178   61.4751 N.am    1  ZINC000439870054   -0.6300
     12 C12        -9.3089    0.4497   60.2765 C.2     1  ZINC000439870054    0.5300
     13 O13       -10.1040    1.2369   59.8084 O.2     1  ZINC000439870054   -0.4900
     14 C14        -8.0529    0.1062   59.5178 C.3     1  ZINC000439870054   -0.0700
     15 C15        -8.0160    0.8853   58.2283 C.2     1  ZINC000439870054    0.0900
     16 C16        -7.3837    2.0579   58.1260 C.2     1  ZINC000439870054   -0.2400
     17 S17        -7.5698    2.6442   56.4744 S.3     1  ZINC000439870054    0.1300
     18 C18        -8.5090    1.2081   56.0751 C.2     1  ZINC000439870054    0.1400
     19 C19        -9.0922    0.9081   54.7584 C.2     1  ZINC000439870054   -0.1300
     20 C20        -9.0711    1.7338   53.6894 C.2     1  ZINC000439870054   -0.1000
     21 C21        -9.6836    1.2313   52.5618 C.2     1  ZINC000439870054   -0.1200
     22 C22       -10.2041    0.0056   52.6978 C.2     1  ZINC000439870054   -0.1500
     23 Cl23      -11.0309   -0.8724   51.4491 Cl      1  ZINC000439870054    0.0000
     24 S24        -9.9182   -0.5844   54.3296 S.3     1  ZINC000439870054    0.2500
     25 N25        -8.5991    0.4507   57.1339 N.2     1  ZINC000439870054   -0.4400
     26 C26        -8.5984   -1.0747   62.0625 C.3     1  ZINC000439870054    0.0900
     27 C27        -8.0349   -0.4928   63.3643 C.3     1  ZINC000439870054    0.0900
     28 N28        -9.1298    0.0666   64.1557 N.pl3   1  ZINC000439870054   -0.4700
     29 H29        -6.8430    1.3776   67.7854 H       1  ZINC000439870054    0.0700
     30 H30        -7.3508    2.2076   66.2949 H       1  ZINC000439870054    0.0500
     31 H31        -8.5283    1.9189   67.5982 H       1  ZINC000439870054    0.0700
     32 H32        -7.1557   -0.2373   65.9299 H       1  ZINC000439870054    0.0800
     33 H33        -8.7169   -1.7657   67.1026 H       1  ZINC000439870054    0.0500
     34 H34        -7.6407   -0.9427   68.2571 H       1  ZINC000439870054    0.0700
     35 H35        -9.3259   -0.4013   68.0699 H       1  ZINC000439870054    0.0700
     36 H36       -10.6302    2.2658   61.6299 H       1  ZINC000439870054    0.0600
     37 H37       -11.8217    1.3107   60.7154 H       1  ZINC000439870054    0.0900
     38 H38       -12.1824    1.8245   62.3811 H       1  ZINC000439870054    0.0700
     39 H39        -7.1822    0.3619   60.1217 H       1  ZINC000439870054    0.1100
     40 H40        -8.0418   -0.9613   59.2978 H       1  ZINC000439870054    0.1200
     41 H41        -6.8505    2.5605   58.9195 H       1  ZINC000439870054    0.1800
     42 H42        -8.6112    2.7106   53.7165 H       1  ZINC000439870054    0.1500
     43 H43        -9.7399    1.7857   51.6367 H       1  ZINC000439870054    0.1600
     44 H44        -9.1110   -2.0129   62.2749 H       1  ZINC000439870054    0.0900
     45 H45        -7.7834   -1.2550   61.3615 H       1  ZINC000439870054    0.1200
     46 H46        -7.5386   -1.2809   63.9307 H       1  ZINC000439870054    0.1100
     47 H47        -7.3190    0.2954   63.1311 H       1  ZINC000439870054    0.0900
@<TRIPOS>BOND
     1     1     2    1
     2     1    29    1
     3     1    30    1
     4     1    31    1
     5     2     3    1
     6     2     4    1
     7     2    32    1
     8     3    33    1
     9     3    34    1
    10     3    35    1
    11     4    28    1
    12     4     5    2
    13     5     6    1
    14     6     7    2
    15     7    28    1
    16     7     8    1
    17     8     9    1
    18     8    10    1
    19     8    11    1
    20    10    36    1
    21    10    37    1
    22    10    38    1
    23    11    12   am
    24    11    26    1
    25    12    13    2
    26    12    14    1
    27    14    15    1
    28    14    39    1
    29    14    40    1
    30    15    25    1
    31    15    16    2
    32    16    17    1
    33    16    41    1
    34    17    18    1
    35    18    19    1
    36    18    25    2
    37    19    24    1
    38    19    20    2
    39    20    21    1
    40    20    42    1
    41    21    22    2
    42    21    43    1
    43    22    23    1
    44    22    24    1
    45    26    27    1
    46    26    44    1
    47    26    45    1
    48    27    28    1
    49    27    46    1
    50    27    47    1
@<TRIPOS>SUBSTRUCTURE
     1 ZINC000439870054        1 TEMP              0 ****  ****    0 ROOT


##########                                Name:    ZINC001193456967
##########                DOCK_Rotatable_Bonds:                   3
##########                         Heavy_Atoms:                  27
##########                    Molecular_Weight:             392.451
##########                DOCK_Rotatable_Bonds:                   3
##########                       Formal_Charge:           0.0300002
##########                     HBond_Acceptors:                   8
##########                        HBond_Donors:                   0
##########                         Heavy_Atoms:                  27
##########                          Grid_Score:          -30.380558
##########                     Grid_vdw_energy:          -29.005632
##########                      Grid_es_energy:           -1.374925
##########           Internal_energy_repulsive:           38.297527

@<TRIPOS>MOLECULE
ZINC001193456967
 48 50 1 0 0
SMALL
USER_CHARGES


@<TRIPOS>ATOM
      1 C1          3.4901    1.0962   41.3413 C.3     1  ZINC001193456967   -0.1400
      2 C2          2.3447    0.9069   42.3021 C.ar    1  ZINC001193456967    0.0300
      3 C3          1.2052    0.2383   41.8959 C.ar    1  ZINC001193456967   -0.1400
      4 C4          0.1543    0.0647   42.7774 C.ar    1  ZINC001193456967    0.0300
      5 C5          0.2433    0.5593   44.0648 C.ar    1  ZINC001193456967   -0.6900
      6 S6         -1.0961    0.3386   45.1881 S.o2    1  ZINC001193456967    2.7100
      7 O7         -2.2868    0.4895   44.4274 O.2     1  ZINC001193456967   -0.9300
      8 O8         -0.7987   -0.8281   45.9429 O.2     1  ZINC001193456967   -0.9400
      9 N9         -1.0573    1.6066   46.2525 N.am    1  ZINC001193456967   -1.0000
     10 C10        -1.1738    3.0322   45.8954 C.3     1  ZINC001193456967    0.1100
     11 C11        -0.4811    3.7895   47.0557 C.3     1  ZINC001193456967   -0.1200
     12 C12        -0.8967    2.9313   48.2797 C.3     1  ZINC001193456967   -0.0500
     13 H13        -1.8908    3.2119   48.6277 H       1  ZINC001193456967    0.1000
     14 C14         0.1123    3.0642   49.3912 C.ar    1  ZINC001193456967   -0.0800
     15 C15        -0.3092    3.0851   50.7077 C.ar    1  ZINC001193456967   -0.0800
     16 C16         0.6151    3.2070   51.7278 C.ar    1  ZINC001193456967   -0.1500
     17 C17         1.9637    3.3076   51.4310 C.ar    1  ZINC001193456967    0.1000
     18 F18         2.8682    3.4263   52.4275 F       1  ZINC001193456967   -0.1400
     19 C19         2.3847    3.2861   50.1121 C.ar    1  ZINC001193456967   -0.1500
     20 C20         1.4590    3.1593   49.0939 C.ar    1  ZINC001193456967   -0.0800
     21 C21        -0.9076    1.4967   47.7109 C.3     1  ZINC001193456967    0.1900
     22 C22        -2.0789    0.7109   48.3037 C.3     1  ZINC001193456967   -0.1800
     23 C23         0.4123    0.7964   48.0402 C.3     1  ZINC001193456967   -0.1800
     24 C24         1.3837    1.2270   44.4716 C.ar    1  ZINC001193456967    0.0400
     25 C25         2.4358    1.3972   43.5916 C.ar    1  ZINC001193456967   -0.0600
     26 N26         3.6566    2.1120   44.0270 N.pl3   1  ZINC001193456967    0.0200
     27 O27         4.7505    1.7387   43.6429 O.2     1  ZINC001193456967   -0.1400
     28 O28         3.5673    3.0733   44.7695 O.2     1  ZINC001193456967   -0.1500
     29 H29         4.2233    0.3034   41.4893 H       1  ZINC001193456967    0.1100
     30 H30         3.1161    1.0588   40.3182 H       1  ZINC001193456967    0.0900
     31 H31         3.9594    2.0634   41.5215 H       1  ZINC001193456967    0.0800
     32 H32         1.1356   -0.1482   40.8898 H       1  ZINC001193456967    0.1600
     33 H33        -0.7363   -0.4572   42.4597 H       1  ZINC001193456967    0.1600
     34 H34        -0.6616    3.2304   44.9539 H       1  ZINC001193456967    0.0900
     35 H35        -2.2224    3.3216   45.8260 H       1  ZINC001193456967    0.0700
     36 H36         0.6016    3.7917   46.9297 H       1  ZINC001193456967    0.0900
     37 H37        -0.8649    4.8061   47.1429 H       1  ZINC001193456967    0.0900
     38 H38        -1.3612    3.0066   50.9390 H       1  ZINC001193456967    0.1400
     39 H39         0.2855    3.2240   52.7562 H       1  ZINC001193456967    0.1400
     40 H40         3.4364    3.3649   49.8795 H       1  ZINC001193456967    0.1400
     41 H41         1.7871    3.1422   48.0651 H       1  ZINC001193456967    0.1300
     42 H42        -3.0154    1.2063   48.0477 H       1  ZINC001193456967    0.0700
     43 H43        -2.0802   -0.3007   47.8977 H       1  ZINC001193456967    0.0600
     44 H44        -1.9754    0.6671   49.3879 H       1  ZINC001193456967    0.0800
     45 H45         0.5933    0.8485   49.1138 H       1  ZINC001193456967    0.0800
     46 H46         0.3567   -0.2474   47.7314 H       1  ZINC001193456967    0.0900
     47 H47         1.2272    1.2893   47.5100 H       1  ZINC001193456967    0.0700
     48 H48         1.4534    1.6131   45.4778 H       1  ZINC001193456967    0.1600
@<TRIPOS>BOND
     1     1     2    1
     2     1    29    1
     3     1    30    1
     4     1    31    1
     5     2    25   ar
     6     2     3   ar
     7     3     4   ar
     8     3    32    1
     9     4     5   ar
    10     4    33    1
    11     5     6    1
    12     5    24   ar
    13     6     7    2
    14     6     8    2
    15     6     9   am
    16     9    21    1
    17     9    10    1
    18    10    11    1
    19    10    34    1
    20    10    35    1
    21    11    12    1
    22    11    36    1
    23    11    37    1
    24    12    13    1
    25    12    14    1
    26    12    21    1
    27    14    20   ar
    28    14    15   ar
    29    15    16   ar
    30    15    38    1
    31    16    17   ar
    32    16    39    1
    33    17    18    1
    34    17    19   ar
    35    19    20   ar
    36    19    40    1
    37    20    41    1
    38    21    22    1
    39    21    23    1
    40    22    42    1
    41    22    43    1
    42    22    44    1
    43    23    45    1
    44    23    46    1
    45    23    47    1
    46    24    25   ar
    47    24    48    1
    48    25    26    1
    49    26    27    2
    50    26    28    2
@<TRIPOS>SUBSTRUCTURE
     1 ZINC001193456967        1 TEMP              0 ****  ****    0 ROOT


##########                                Name:    ZINC000788423111
##########                DOCK_Rotatable_Bonds:                   7
##########                         Heavy_Atoms:                  23
##########                    Molecular_Weight:             399.243
##########                DOCK_Rotatable_Bonds:                   7
##########                       Formal_Charge:         1.04308e-07
##########                     HBond_Acceptors:                   8
##########                        HBond_Donors:                   1
##########                         Heavy_Atoms:                  23
##########                          Grid_Score:          -30.322073
##########                     Grid_vdw_energy:          -30.378050
##########                      Grid_es_energy:            0.055977
##########           Internal_energy_repulsive:            3.483587

@<TRIPOS>MOLECULE
ZINC000788423111
 35 37 1 0 0
SMALL
USER_CHARGES


@<TRIPOS>ATOM
      1 O1          1.2467    4.5457   48.7539 O.3     1  ZINC000788423111   -0.5400
      2 C2         -0.0996    4.2980   49.1641 C.3     1  ZINC000788423111    0.1000
      3 H3         -0.1487    3.3470   49.6945 H       1  ZINC000788423111    0.1300
      4 C4         -1.0059    4.2426   47.9327 C.3     1  ZINC000788423111    0.0300
      5 O5         -1.9056    3.1388   48.0527 O.3     1  ZINC000788423111   -0.2900
      6 C6         -1.5734    1.9977   47.3938 C.ar    1  ZINC000788423111    0.1700
      7 C7         -1.6612    1.9438   46.0109 C.ar    1  ZINC000788423111   -0.2400
      8 C8         -1.3226    0.7806   45.3420 C.ar    1  ZINC000788423111    0.1500
      9 F9         -1.4077    0.7271   43.9947 F       1  ZINC000788423111   -0.1300
     10 C10        -0.8960   -0.3281   46.0531 C.ar    1  ZINC000788423111   -0.1600
     11 C11        -0.8085   -0.2753   47.4328 C.ar    1  ZINC000788423111   -0.0300
     12 Br12       -0.2255   -1.7913   48.4011 Br      1  ZINC000788423111   -0.0200
     13 C13        -1.1406    0.8867   48.1036 C.ar    1  ZINC000788423111   -0.1300
     14 C14        -0.5658    5.4231   50.0902 C.3     1  ZINC000788423111    0.1000
     15 N15        -1.6967    4.9558   50.8955 N.pl3   1  ZINC000788423111   -0.1300
     16 N16        -2.9387    5.1048   50.5917 N.2     1  ZINC000788423111   -0.0500
     17 N17        -3.6639    4.5765   51.5184 N.2     1  ZINC000788423111   -0.2600
     18 C18        -2.8280    4.0758   52.4411 C.2     1  ZINC000788423111    0.2400
     19 C19        -3.2050    3.3746   53.6878 C.2     1  ZINC000788423111   -0.1300
     20 C20        -2.3442    2.9569   54.6362 C.2     1  ZINC000788423111   -0.0800
     21 C21        -2.9334    2.3250   55.7122 C.2     1  ZINC000788423111   -0.1400
     22 C22        -4.2641    2.2240   55.6499 C.2     1  ZINC000788423111   -0.2000
     23 S23        -4.8474    2.9640   54.1650 S.3     1  ZINC000788423111    0.1700
     24 N24        -1.6037    4.3262   52.0162 N.2     1  ZINC000788423111   -0.2900
     25 H25         1.7823    5.0019   49.4172 H       1  ZINC000788423111    0.3800
     26 H26        -1.5754    5.1690   47.8586 H       1  ZINC000788423111    0.0900
     27 H27        -0.3960    4.1185   47.0379 H       1  ZINC000788423111    0.0800
     28 H28        -1.9941    2.8089   45.4564 H       1  ZINC000788423111    0.1500
     29 H29        -0.6315   -1.2353   45.5302 H       1  ZINC000788423111    0.1500
     30 H30        -1.0717    0.9272   49.1806 H       1  ZINC000788423111    0.1500
     31 H31         0.2528    5.7149   50.7482 H       1  ZINC000788423111    0.1300
     32 H32        -0.8750    6.2809   49.4928 H       1  ZINC000788423111    0.1300
     33 H33        -1.2771    3.1044   54.5602 H       1  ZINC000788423111    0.1500
     34 H34        -2.3609    1.9402   56.5432 H       1  ZINC000788423111    0.1500
     35 H35        -4.8880    1.7618   56.4005 H       1  ZINC000788423111    0.1700
@<TRIPOS>BOND
     1     1     2    1
     2     1    25    1
     3     2     3    1
     4     2     4    1
     5     2    14    1
     6     4     5    1
     7     4    26    1
     8     4    27    1
     9     5     6    1
    10     6    13   ar
    11     6     7   ar
    12     7     8   ar
    13     7    28    1
    14     8     9    1
    15     8    10   ar
    16    10    11   ar
    17    10    29    1
    18    11    12    1
    19    11    13   ar
    20    13    30    1
    21    14    15    1
    22    14    31    1
    23    14    32    1
    24    15    24    1
    25    15    16    1
    26    16    17    2
    27    17    18    1
    28    18    19    1
    29    18    24    2
    30    19    23    1
    31    19    20    2
    32    20    21    1
    33    20    33    1
    34    21    22    2
    35    21    34    1
    36    22    23    1
    37    22    35    1
@<TRIPOS>SUBSTRUCTURE
     1 ZINC000788423111        1 TEMP              0 ****  ****    0 ROOT


##########                                Name:    ZINC001058772245
##########                DOCK_Rotatable_Bonds:                  11
##########                         Heavy_Atoms:                  22
##########                    Molecular_Weight:             335.375
##########                DOCK_Rotatable_Bonds:                  11
##########                       Formal_Charge:          0.00999964
##########                     HBond_Acceptors:                   9
##########                        HBond_Donors:                   2
##########                         Heavy_Atoms:                  22
##########                          Grid_Score:          -30.306498
##########                     Grid_vdw_energy:          -26.321720
##########                      Grid_es_energy:           -3.984777
##########           Internal_energy_repulsive:           68.433540

@<TRIPOS>MOLECULE
ZINC001058772245
 41 41 1 0 0
SMALL
USER_CHARGES


@<TRIPOS>ATOM
      1 C1         -0.0824    5.5748   45.8260 C.3     1  ZINC001058772245   -0.1700
      2 C2          0.4734    4.8554   47.0566 C.3     1  ZINC001058772245   -0.1400
      3 C3          1.2295    5.8553   47.9337 C.3     1  ZINC001058772245   -0.1500
      4 C4         -0.6631    4.2557   47.8438 C.2     1  ZINC001058772245    0.5300
      5 O5         -0.8449    4.5886   48.9958 O.2     1  ZINC001058772245   -0.5200
      6 N6         -1.4775    3.3493   47.2678 N.am    1  ZINC001058772245   -0.5900
      7 C7         -2.5823    2.7664   48.0332 C.3     1  ZINC001058772245    0.0800
      8 C8         -2.0261    1.7735   49.0558 C.3     1  ZINC001058772245    0.0400
      9 O9         -3.0319    1.4753   50.0261 O.3     1  ZINC001058772245   -0.5700
     10 C10        -1.2580    2.9472   45.8763 C.3     1  ZINC001058772245    0.1100
     11 C11        -1.4313    1.4323   45.7498 C.3     1  ZINC001058772245    0.1000
     12 N12        -1.0221    1.0041   44.4099 N.am    1  ZINC001058772245   -0.7100
     13 C13         0.2723    0.7269   44.1570 C.2     1  ZINC001058772245    0.6000
     14 O14         1.1007    0.8308   45.0417 O.2     1  ZINC001058772245   -0.5300
     15 C15         0.6840    0.2982   42.8096 C.2     1  ZINC001058772245    0.0000
     16 C16         1.8886    0.5989   42.2740 C.2     1  ZINC001058772245   -0.2200
     17 S17         1.9794   -0.0767   40.7064 S.3     1  ZINC001058772245    0.2300
     18 C18         0.4051   -0.7212   40.8562 C.2     1  ZINC001058772245    0.0000
     19 N19        -0.0955   -0.4286   42.0047 N.2     1  ZINC001058772245   -0.4400
     20 C20         1.4269    3.7450   46.6110 C.3     1  ZINC001058772245    0.2900
     21 F21         2.7421    4.1073   46.9215 F       1  ZINC001058772245   -0.1900
     22 F22         1.1016    2.5568   47.2741 F       1  ZINC001058772245   -0.2000
     23 H23         0.7241    5.7548   45.1152 H       1  ZINC001058772245    0.0800
     24 H24        -0.8477    4.9556   45.3580 H       1  ZINC001058772245    0.0700
     25 H25        -0.5198    6.5265   46.1280 H       1  ZINC001058772245    0.0900
     26 H26         0.5159    6.4876   48.4619 H       1  ZINC001058772245    0.0800
     27 H27         1.8407    5.3150   48.6565 H       1  ZINC001058772245    0.0700
     28 H28         1.8706    6.4758   47.3074 H       1  ZINC001058772245    0.0900
     29 H29        -3.1223    3.5583   48.5522 H       1  ZINC001058772245    0.0900
     30 H30        -3.2604    2.2482   47.3551 H       1  ZINC001058772245    0.1200
     31 H31        -1.7287    0.8564   48.5472 H       1  ZINC001058772245    0.0600
     32 H32        -1.1601    2.2106   49.5528 H       1  ZINC001058772245    0.0700
     33 H33        -2.7611    0.8214   50.6850 H       1  ZINC001058772245    0.3800
     34 H34        -1.9808    3.4504   45.2342 H       1  ZINC001058772245    0.1000
     35 H35        -0.2482    3.2239   45.5732 H       1  ZINC001058772245    0.0900
     36 H36        -0.8133    0.9323   46.4955 H       1  ZINC001058772245    0.0700
     37 H37        -2.4774    1.1716   45.9108 H       1  ZINC001058772245    0.0700
     38 H38        -1.6827    0.9201   43.7047 H       1  ZINC001058772245    0.4100
     39 H39         2.6659    1.1720   42.7574 H       1  ZINC001058772245    0.1900
     40 H40        -0.0988   -1.2972   40.0943 H       1  ZINC001058772245    0.2100
     41 H41         1.3351    3.5973   45.5350 H       1  ZINC001058772245    0.1200
@<TRIPOS>BOND
     1     1     2    1
     2     1    23    1
     3     1    24    1
     4     1    25    1
     5     2     3    1
     6     2     4    1
     7     2    20    1
     8     3    26    1
     9     3    27    1
    10     3    28    1
    11     4     5    2
    12     4     6   am
    13     6     7    1
    14     6    10    1
    15     7     8    1
    16     7    29    1
    17     7    30    1
    18     8     9    1
    19     8    31    1
    20     8    32    1
    21     9    33    1
    22    10    11    1
    23    10    34    1
    24    10    35    1
    25    11    12    1
    26    11    36    1
    27    11    37    1
    28    12    13   am
    29    12    38    1
    30    13    14    2
    31    13    15    1
    32    15    19    1
    33    15    16    2
    34    16    17    1
    35    16    39    1
    36    17    18    1
    37    18    19    2
    38    18    40    1
    39    20    21    1
    40    20    22    1
    41    20    41    1
@<TRIPOS>SUBSTRUCTURE
     1 ZINC001058772245        1 TEMP              0 ****  ****    0 ROOT


##########                                Name:    ZINC001067560454
##########                DOCK_Rotatable_Bonds:                   4
##########                         Heavy_Atoms:                  25
##########                    Molecular_Weight:             342.444
##########                DOCK_Rotatable_Bonds:                   4
##########                       Formal_Charge:          0.00999971
##########                     HBond_Acceptors:                   7
##########                        HBond_Donors:                   1
##########                         Heavy_Atoms:                  25
##########                          Grid_Score:          -30.271229
##########                     Grid_vdw_energy:          -29.711239
##########                      Grid_es_energy:           -0.559990
##########           Internal_energy_repulsive:           16.449766

@<TRIPOS>MOLECULE
ZINC001067560454
 51 54 1 0 0
SMALL
USER_CHARGES


@<TRIPOS>ATOM
      1 C1         -1.4521    3.5288   45.4122 C.3     1  ZINC001067560454   -0.1500
      2 C2         -0.9045    2.7546   46.6130 C.3     1  ZINC001067560454    0.1000
      3 H3          0.1408    3.0206   46.7705 H       1  ZINC001067560454    0.0600
      4 C4         -1.7149    3.1102   47.8616 C.3     1  ZINC001067560454   -0.1200
      5 C5         -1.1763    2.3183   49.0562 C.3     1  ZINC001067560454    0.1400
      6 H6         -0.1399    2.6000   49.2427 H       1  ZINC001067560454    0.0900
      7 N7         -1.9843    2.6118   50.2425 N.am    1  ZINC001067560454   -0.7200
      8 C8         -1.6060    3.5883   51.0908 C.2     1  ZINC001067560454    0.5400
      9 O9         -0.5960    4.2233   50.8729 O.2     1  ZINC001067560454   -0.5300
     10 C10        -2.4382    3.8915   52.3102 C.3     1  ZINC001067560454   -0.1100
     11 C11        -3.8606    3.3366   52.2115 C.3     1  ZINC001067560454   -0.1300
     12 C12        -1.7343    3.5553   53.6354 C.3     1  ZINC001067560454   -0.1200
     13 C13        -1.1641    4.9831   53.6040 C.3     1  ZINC001067560454   -0.1400
     14 C14        -2.3806    5.3656   52.7444 C.3     1  ZINC001067560454   -0.1200
     15 C15        -1.2510    0.8216   48.7420 C.3     1  ZINC001067560454   -0.1200
     16 C16        -0.4541    0.5323   47.4680 C.3     1  ZINC001067560454    0.0600
     17 N17        -1.0088    1.3129   46.3546 N.3     1  ZINC001067560454   -0.4900
     18 C18        -0.3957    0.9778   45.1600 C.ar    1  ZINC001067560454    0.4400
     19 C19         0.9886    1.1485   44.9897 C.ar    1  ZINC001067560454   -0.0800
     20 N20         1.9954    1.6060   45.7722 N.2     1  ZINC001067560454   -0.4700
     21 C21         3.1156    1.5524   45.1119 C.2     1  ZINC001067560454    0.2700
     22 N22         2.8960    1.0558   43.8615 N.pl3   1  ZINC001067560454   -0.4800
     23 C23         3.9072    0.8442   42.8229 C.3     1  ZINC001067560454    0.0800
     24 C24         1.5543    0.7899   43.7544 C.ar    1  ZINC001067560454    0.2800
     25 N25         0.7668    0.3058   42.7996 N.ar    1  ZINC001067560454   -0.5200
     26 C26        -0.5258    0.1629   43.0043 C.ar    1  ZINC001067560454    0.3300
     27 N27        -1.1016    0.4818   44.1490 N.ar    1  ZINC001067560454   -0.5100
     28 H28        -2.4974    3.2628   45.2546 H       1  ZINC001067560454    0.0700
     29 H29        -1.3743    4.5989   45.6038 H       1  ZINC001067560454    0.0700
     30 H30        -0.8748    3.2759   44.5230 H       1  ZINC001067560454    0.0500
     31 H31        -1.6246    4.1778   48.0621 H       1  ZINC001067560454    0.0800
     32 H32        -2.7626    2.8569   47.6997 H       1  ZINC001067560454    0.0800
     33 H33        -2.7915    2.1032   50.4174 H       1  ZINC001067560454    0.4000
     34 H34        -3.8216    2.2853   51.9267 H       1  ZINC001067560454    0.0600
     35 H35        -4.3560    3.4333   53.1776 H       1  ZINC001067560454    0.0700
     36 H36        -4.4176    3.8962   51.4600 H       1  ZINC001067560454    0.0600
     37 H37        -2.4220    3.3777   54.4623 H       1  ZINC001067560454    0.0900
     38 H38        -0.9744    2.7795   53.5416 H       1  ZINC001067560454    0.0700
     39 H39        -1.1490    5.4688   54.5797 H       1  ZINC001067560454    0.0700
     40 H40        -0.2140    5.0624   53.0759 H       1  ZINC001067560454    0.0800
     41 H41        -2.1424    6.0513   51.9313 H       1  ZINC001067560454    0.0800
     42 H42        -3.2450    5.6830   53.3276 H       1  ZINC001067560454    0.0900
     43 H43        -0.8295    0.2541   49.5716 H       1  ZINC001067560454    0.0800
     44 H44        -2.2916    0.5323   48.5939 H       1  ZINC001067560454    0.0800
     45 H45         0.5890    0.8090   47.6214 H       1  ZINC001067560454    0.0700
     46 H46        -0.5172   -0.5302   47.2334 H       1  ZINC001067560454    0.0800
     47 H47         4.0773    1.8570   45.4976 H       1  ZINC001067560454    0.2300
     48 H48         4.3189   -0.1608   42.9158 H       1  ZINC001067560454    0.0800
     49 H49         3.4490    0.9598   41.8407 H       1  ZINC001067560454    0.0900
     50 H50         4.7064    1.5763   42.9393 H       1  ZINC001067560454    0.0900
     51 H51        -1.1376   -0.2333   42.2074 H       1  ZINC001067560454    0.2100
@<TRIPOS>BOND
     1     1     2    1
     2     1    28    1
     3     1    29    1
     4     1    30    1
     5     2     3    1
     6     2    17    1
     7     2     4    1
     8     4     5    1
     9     4    31    1
    10     4    32    1
    11     5     6    1
    12     5     7    1
    13     5    15    1
    14     7     8   am
    15     7    33    1
    16     8     9    2
    17     8    10    1
    18    10    14    1
    19    10    11    1
    20    10    12    1
    21    11    34    1
    22    11    35    1
    23    11    36    1
    24    12    13    1
    25    12    37    1
    26    12    38    1
    27    13    14    1
    28    13    39    1
    29    13    40    1
    30    14    41    1
    31    14    42    1
    32    15    16    1
    33    15    43    1
    34    15    44    1
    35    16    17    1
    36    16    45    1
    37    16    46    1
    38    17    18    1
    39    18    27   ar
    40    18    19   ar
    41    19    24   ar
    42    19    20    1
    43    20    21    2
    44    21    22    1
    45    21    47    1
    46    22    23    1
    47    22    24    1
    48    23    48    1
    49    23    49    1
    50    23    50    1
    51    24    25   ar
    52    25    26   ar
    53    26    27   ar
    54    26    51    1
@<TRIPOS>SUBSTRUCTURE
     1 ZINC001067560454        1 TEMP              0 ****  ****    0 ROOT


##########                                Name:    ZINC000846412382
##########                DOCK_Rotatable_Bonds:                   6
##########                         Heavy_Atoms:                  26
##########                    Molecular_Weight:             370.475
##########                DOCK_Rotatable_Bonds:                   6
##########                       Formal_Charge:               -0.03
##########                     HBond_Acceptors:                   7
##########                        HBond_Donors:                   4
##########                         Heavy_Atoms:                  26
##########                          Grid_Score:          -30.243462
##########                     Grid_vdw_energy:          -29.288630
##########                      Grid_es_energy:           -0.954831
##########           Internal_energy_repulsive:           23.802679

@<TRIPOS>MOLECULE
ZINC000846412382
 48 50 1 0 0
SMALL
USER_CHARGES


@<TRIPOS>ATOM
      1 C1         -1.9413    5.4820   49.1412 C.3     1  ZINC000846412382   -0.1400
      2 C2         -2.1938    4.0009   49.0242 C.2     1  ZINC000846412382    0.0300
      3 C3         -2.7084    3.2823   50.0300 C.2     1  ZINC000846412382   -0.2700
      4 C4         -3.0830    3.8283   51.3402 C.2     1  ZINC000846412382    0.6000
      5 O5         -4.0678    4.5350   51.4459 O.2     1  ZINC000846412382   -0.5200
      6 N6         -2.3360    3.5467   52.4261 N.am    1  ZINC000846412382   -0.7100
      7 C7         -2.7088    4.0929   53.7333 C.3     1  ZINC000846412382    0.1200
      8 H8         -3.5694    4.7522   53.6196 H       1  ZINC000846412382    0.1000
      9 C9         -3.0661    2.9468   54.6819 C.3     1  ZINC000846412382   -0.1700
     10 C10        -1.5329    4.8842   54.3096 C.3     1  ZINC000846412382    0.1700
     11 C11        -2.0426    5.8419   55.3885 C.3     1  ZINC000846412382   -0.1400
     12 O12        -0.9053    5.6325   53.2664 O.3     1  ZINC000846412382   -0.5500
     13 C13        -0.5346    3.9312   54.9148 C.ar    1  ZINC000846412382   -0.1200
     14 C14        -0.4467    3.8026   56.2884 C.ar    1  ZINC000846412382   -0.1100
     15 C15         0.4690    2.9284   56.8435 C.ar    1  ZINC000846412382   -0.1200
     16 C16         1.2964    2.1825   56.0252 C.ar    1  ZINC000846412382   -0.1200
     17 C17         1.2079    2.3104   54.6515 C.ar    1  ZINC000846412382   -0.1200
     18 C18         0.2892    3.1814   54.0963 C.ar    1  ZINC000846412382   -0.1000
     19 S19        -2.8739    1.5974   49.5658 S.3     1  ZINC000846412382    0.2000
     20 C20        -2.2190    1.9225   47.9666 C.ar    1  ZINC000846412382    0.1400
     21 N21        -1.9958    1.1158   46.9229 N.ar    1  ZINC000846412382   -0.5300
     22 C22        -1.4902    1.5801   45.8031 C.ar    1  ZINC000846412382    0.3900
     23 C23        -1.2594    0.6276   44.6584 C.3     1  ZINC000846412382   -0.0900
     24 N24        -1.1779    2.8536   45.6467 N.ar    1  ZINC000846412382   -0.5800
     25 C25        -1.3614    3.7317   46.6209 C.ar    1  ZINC000846412382    0.5100
     26 N26        -1.0293    5.0590   46.4402 N.pl3   1  ZINC000846412382   -0.8300
     27 C27        -1.9116    3.2857   47.8558 C.ar    1  ZINC000846412382   -0.2500
     28 H28        -2.7923    6.0287   48.7350 H       1  ZINC000846412382    0.0800
     29 H29        -1.8070    5.7460   50.1901 H       1  ZINC000846412382    0.1100
     30 H30        -1.0421    5.7425   48.5829 H       1  ZINC000846412382    0.0700
     31 H31        -1.5515    2.9823   52.3421 H       1  ZINC000846412382    0.4000
     32 H32        -2.2054    2.2877   54.7956 H       1  ZINC000846412382    0.0600
     33 H33        -3.3435    3.3533   55.6545 H       1  ZINC000846412382    0.0800
     34 H34        -3.9038    2.3832   54.2714 H       1  ZINC000846412382    0.0700
     35 H35        -2.5213    5.2712   56.1843 H       1  ZINC000846412382    0.0700
     36 H36        -1.2049    6.4057   55.7991 H       1  ZINC000846412382    0.0700
     37 H37        -2.7646    6.5312   54.9508 H       1  ZINC000846412382    0.0700
     38 H38        -0.4160    5.0898   52.6330 H       1  ZINC000846412382    0.3800
     39 H39        -1.0932    4.3854   56.9277 H       1  ZINC000846412382    0.1300
     40 H40         0.5382    2.8285   57.9166 H       1  ZINC000846412382    0.1200
     41 H41         2.0124    1.5001   56.4589 H       1  ZINC000846412382    0.1200
     42 H42         1.8546    1.7279   54.0122 H       1  ZINC000846412382    0.1200
     43 H43         0.2201    3.2814   53.0231 H       1  ZINC000846412382    0.1300
     44 H44        -2.1515    0.5879   44.0332 H       1  ZINC000846412382    0.0900
     45 H45        -0.4139    0.9728   44.0634 H       1  ZINC000846412382    0.0900
     46 H46        -1.0459   -0.3667   45.0504 H       1  ZINC000846412382    0.0900
     47 H47        -0.3858    5.3095   45.7589 H       1  ZINC000846412382    0.4100
     48 H48        -1.4395    5.7413   46.9943 H       1  ZINC000846412382    0.4200
@<TRIPOS>BOND
     1     1     2    1
     2     1    28    1
     3     1    29    1
     4     1    30    1
     5     2    27    1
     6     2     3    2
     7     3     4    1
     8     3    19    1
     9     4     5    2
    10     4     6   am
    11     6     7    1
    12     6    31    1
    13     7     8    1
    14     7     9    1
    15     7    10    1
    16     9    32    1
    17     9    33    1
    18     9    34    1
    19    10    11    1
    20    10    12    1
    21    10    13    1
    22    11    35    1
    23    11    36    1
    24    11    37    1
    25    12    38    1
    26    13    18   ar
    27    13    14   ar
    28    14    15   ar
    29    14    39    1
    30    15    16   ar
    31    15    40    1
    32    16    17   ar
    33    16    41    1
    34    17    18   ar
    35    17    42    1
    36    18    43    1
    37    19    20    1
    38    20    27   ar
    39    20    21   ar
    40    21    22   ar
    41    22    23    1
    42    22    24   ar
    43    23    44    1
    44    23    45    1
    45    23    46    1
    46    24    25   ar
    47    25    26    1
    48    25    27   ar
    49    26    47    1
    50    26    48    1
@<TRIPOS>SUBSTRUCTURE
     1 ZINC000846412382        1 TEMP              0 ****  ****    0 ROOT


##########                                Name:    ZINC000512239524
##########                DOCK_Rotatable_Bonds:                   9
##########                         Heavy_Atoms:                  31
##########                    Molecular_Weight:             424.518
##########                DOCK_Rotatable_Bonds:                   9
##########                       Formal_Charge:          0.00999919
##########                     HBond_Acceptors:                   7
##########                        HBond_Donors:                   1
##########                         Heavy_Atoms:                  31
##########                          Grid_Score:          -30.231285
##########                     Grid_vdw_energy:          -29.537331
##########                      Grid_es_energy:           -0.693954
##########           Internal_energy_repulsive:           25.227081

@<TRIPOS>MOLECULE
ZINC000512239524
 60 63 1 0 0
SMALL
USER_CHARGES


@<TRIPOS>ATOM
      1 C1         -1.1454    2.7612   46.8675 C.3     1  ZINC000512239524   -0.1600
      2 C2         -0.5296    2.5163   48.2465 C.3     1  ZINC000512239524    0.2000
      3 H3          0.3311    3.1711   48.3816 H       1  ZINC000512239524    0.1100
      4 N4         -1.5255    2.7987   49.2831 N.am    1  ZINC000512239524   -0.7400
      5 C5         -1.7483    4.0686   49.6755 C.2     1  ZINC000512239524    0.7100
      6 O6         -1.1228    4.9800   49.1690 O.2     1  ZINC000512239524   -0.5800
      7 N7         -2.6645    4.3284   50.6292 N.am    1  ZINC000512239524   -0.6300
      8 C8         -3.4240    3.2373   51.2547 C.3     1  ZINC000512239524    0.1300
      9 C9         -3.2710    3.3387   52.7757 C.3     1  ZINC000512239524   -0.1100
     10 C10        -3.6880    4.7381   53.2340 C.3     1  ZINC000512239524   -0.1000
     11 C11        -3.5710    4.8307   54.7336 C.2     1  ZINC000512239524    0.5300
     12 O12        -2.4805    4.7747   55.2615 O.2     1  ZINC000512239524   -0.5300
     13 N13        -4.6783    4.9758   55.4882 N.am    1  ZINC000512239524   -0.5800
     14 C14        -4.5645    5.0676   56.9459 C.3     1  ZINC000512239524    0.1500
     15 C15        -5.4992    4.0739   57.5863 C.ar    1  ZINC000512239524   -0.1100
     16 C16        -5.6417    2.8104   57.0440 C.ar    1  ZINC000512239524   -0.0900
     17 C17        -6.4991    1.8990   57.6315 C.ar    1  ZINC000512239524   -0.1200
     18 C18        -7.2136    2.2509   58.7613 C.ar    1  ZINC000512239524   -0.1100
     19 C19        -7.0704    3.5141   59.3040 C.ar    1  ZINC000512239524   -0.1200
     20 C20        -6.2098    4.4241   58.7192 C.ar    1  ZINC000512239524   -0.1100
     21 C21        -5.9957    5.0418   54.8507 C.3     1  ZINC000512239524    0.0700
     22 C22        -7.0579    5.9211   55.5134 C.3     1  ZINC000512239524   -0.1900
     23 C23        -6.4025    6.3678   54.2052 C.3     1  ZINC000512239524   -0.2000
     24 C24        -2.7755    5.7819   52.5861 C.3     1  ZINC000512239524   -0.1400
     25 C25        -2.9185    5.7076   51.0674 C.3     1  ZINC000512239524    0.1100
     26 C26        -0.0887    1.0790   48.3515 C.ar    1  ZINC000512239524   -0.0800
     27 C27        -1.0165    0.0496   48.3398 C.ar    1  ZINC000512239524   -0.1400
     28 C28        -0.5752   -1.2568   48.4378 C.ar    1  ZINC000512239524    0.1000
     29 N29         0.7106   -1.5295   48.5418 N.ar    1  ZINC000512239524   -0.4600
     30 C30         1.6228   -0.5774   48.5565 C.ar    1  ZINC000512239524    0.0800
     31 C31         1.2574    0.7539   48.4568 C.ar    1  ZINC000512239524    0.0600
     32 F32         2.1968    1.7247   48.4723 F       1  ZINC000512239524   -0.1200
     33 H33        -1.4643    3.8007   46.7914 H       1  ZINC000512239524    0.0700
     34 H34        -0.4044    2.5512   46.0961 H       1  ZINC000512239524    0.0700
     35 H35        -2.0062    2.1063   46.7324 H       1  ZINC000512239524    0.0600
     36 H36        -2.0245    2.0715   49.6872 H       1  ZINC000512239524    0.3900
     37 H37        -4.4769    3.3245   50.9868 H       1  ZINC000512239524    0.0700
     38 H38        -3.0357    2.2783   50.9116 H       1  ZINC000512239524    0.1000
     39 H39        -3.9062    2.5943   53.2556 H       1  ZINC000512239524    0.0900
     40 H40        -2.2309    3.1610   53.0492 H       1  ZINC000512239524    0.0800
     41 H41        -4.7203    4.9246   52.9380 H       1  ZINC000512239524    0.1000
     42 H42        -3.5397    4.8471   57.2449 H       1  ZINC000512239524    0.0900
     43 H43        -4.8284    6.0748   57.2683 H       1  ZINC000512239524    0.1000
     44 H44        -5.0835    2.5353   56.1614 H       1  ZINC000512239524    0.1300
     45 H45        -6.6110    0.9120   57.2075 H       1  ZINC000512239524    0.1200
     46 H46        -7.8840    1.5390   59.2198 H       1  ZINC000512239524    0.1200
     47 H47        -7.6288    3.7892   60.1865 H       1  ZINC000512239524    0.1200
     48 H48        -6.0978    5.4111   59.1432 H       1  ZINC000512239524    0.1200
     49 H49        -6.3312    4.1235   54.3686 H       1  ZINC000512239524    0.1300
     50 H50        -8.0926    5.5813   55.4676 H       1  ZINC000512239524    0.1100
     51 H51        -6.7767    6.4505   56.4237 H       1  ZINC000512239524    0.1000
     52 H52        -5.6900    7.1913   54.2548 H       1  ZINC000512239524    0.1100
     53 H53        -7.0060    6.3221   53.2986 H       1  ZINC000512239524    0.1000
     54 H54        -3.0580    6.7765   52.9311 H       1  ZINC000512239524    0.0900
     55 H55        -1.7400    5.5813   52.8615 H       1  ZINC000512239524    0.0700
     56 H56        -2.1991    6.3794   50.5992 H       1  ZINC000512239524    0.0800
     57 H57        -3.9302    5.9952   50.7811 H       1  ZINC000512239524    0.0800
     58 H58        -2.0714    0.2653   48.2556 H       1  ZINC000512239524    0.1400
     59 H59        -1.2926   -2.0641   48.4293 H       1  ZINC000512239524    0.1700
     60 H60         2.6669   -0.8395   48.6434 H       1  ZINC000512239524    0.1700
@<TRIPOS>BOND
     1     1     2    1
     2     1    33    1
     3     1    34    1
     4     1    35    1
     5     2     3    1
     6     2     4    1
     7     2    26    1
     8     4     5   am
     9     4    36    1
    10     5     6    2
    11     5     7   am
    12     7    25    1
    13     7     8    1
    14     8     9    1
    15     8    37    1
    16     8    38    1
    17     9    10    1
    18     9    39    1
    19     9    40    1
    20    10    11    1
    21    10    24    1
    22    10    41    1
    23    11    12    2
    24    11    13   am
    25    13    14    1
    26    13    21    1
    27    14    15    1
    28    14    42    1
    29    14    43    1
    30    15    20   ar
    31    15    16   ar
    32    16    17   ar
    33    16    44    1
    34    17    18   ar
    35    17    45    1
    36    18    19   ar
    37    18    46    1
    38    19    20   ar
    39    19    47    1
    40    20    48    1
    41    21    23    1
    42    21    22    1
    43    21    49    1
    44    22    23    1
    45    22    50    1
    46    22    51    1
    47    23    52    1
    48    23    53    1
    49    24    25    1
    50    24    54    1
    51    24    55    1
    52    25    56    1
    53    25    57    1
    54    26    31   ar
    55    26    27   ar
    56    27    28   ar
    57    27    58    1
    58    28    29   ar
    59    28    59    1
    60    29    30   ar
    61    30    31   ar
    62    30    60    1
    63    31    32    1
@<TRIPOS>SUBSTRUCTURE
     1 ZINC000512239524        1 TEMP              0 ****  ****    0 ROOT


##########                                Name:    ZINC000470948647
##########                DOCK_Rotatable_Bonds:                   6
##########                         Heavy_Atoms:                  29
##########                    Molecular_Weight:             412.556
##########                DOCK_Rotatable_Bonds:                   6
##########                       Formal_Charge:           0.0100001
##########                     HBond_Acceptors:                   7
##########                        HBond_Donors:                   1
##########                         Heavy_Atoms:                  29
##########                          Grid_Score:          -30.226740
##########                     Grid_vdw_energy:          -31.921715
##########                      Grid_es_energy:            1.694975
##########           Internal_energy_repulsive:           15.409883

@<TRIPOS>MOLECULE
ZINC000470948647
 57 60 1 0 0
SMALL
USER_CHARGES


@<TRIPOS>ATOM
      1 C1        -10.2534   -0.5059   56.1081 C.3     1  ZINC000470948647   -0.1100
      2 C2         -9.2085    0.5654   55.9308 C.ar    1  ZINC000470948647   -0.1000
      3 C3         -8.3711    0.8928   56.9810 C.ar    1  ZINC000470948647   -0.1100
      4 C4         -7.4123    1.8744   56.8216 C.ar    1  ZINC000470948647   -0.1100
      5 C5         -7.2898    2.5322   55.6051 C.ar    1  ZINC000470948647    0.1400
      6 N6         -6.3193    3.5266   55.4402 N.am    1  ZINC000470948647   -0.6700
      7 C7         -5.0140    3.1939   55.3984 C.2     1  ZINC000470948647    0.5100
      8 O8         -4.6804    2.0325   55.5035 O.2     1  ZINC000470948647   -0.4800
      9 C9         -3.9687    4.2649   55.2208 C.3     1  ZINC000470948647    0.1200
     10 H10        -4.4688    5.2281   55.1204 H       1  ZINC000470948647    0.1200
     11 C11        -3.0731    4.2988   56.4801 C.3     1  ZINC000470948647   -0.0700
     12 S12        -1.6321    3.2939   55.9264 S.3     1  ZINC000470948647   -0.2500
     13 C13        -1.7705    3.8321   54.1715 C.3     1  ZINC000470948647    0.1600
     14 N14        -3.2246    3.9945   54.0001 N.am    1  ZINC000470948647   -0.6000
     15 C15        -3.8252    3.9024   52.7970 C.2     1  ZINC000470948647    0.6300
     16 O16        -5.0291    4.0452   52.7061 O.2     1  ZINC000470948647   -0.5100
     17 C17        -3.0208    3.6280   51.5890 C.2     1  ZINC000470948647   -0.0100
     18 N18        -3.2549    2.6973   50.6854 N.2     1  ZINC000470948647   -0.2700
     19 N19        -2.3569    2.7380   49.7677 N.pl3   1  ZINC000470948647   -0.2700
     20 C20        -2.3054    1.8471   48.6058 C.3     1  ZINC000470948647    0.1500
     21 C21        -1.6532    2.5785   47.4308 C.3     1  ZINC000470948647   -0.1300
     22 C22        -1.5994    1.6480   46.2174 C.3     1  ZINC000470948647   -0.1200
     23 C23        -0.7775    0.4050   46.5639 C.3     1  ZINC000470948647   -0.1300
     24 C24        -1.4296   -0.3264   47.7389 C.3     1  ZINC000470948647   -0.1200
     25 C25        -1.4835    0.6040   48.9523 C.3     1  ZINC000470948647   -0.1300
     26 C26        -1.4674    3.7200   50.0279 C.2     1  ZINC000470948647   -0.0100
     27 C27        -1.8560    4.3185   51.1782 C.2     1  ZINC000470948647   -0.1700
     28 C28        -8.1324    2.2006   54.5517 C.ar    1  ZINC000470948647   -0.1100
     29 C29        -8.0025    2.9117   53.2294 C.3     1  ZINC000470948647   -0.1100
     30 C30        -9.0856    1.2150   54.7160 C.ar    1  ZINC000470948647   -0.1000
     31 H31        -9.8304   -1.4740   55.8396 H       1  ZINC000470948647    0.0700
     32 H32       -10.5788   -0.5275   57.1482 H       1  ZINC000470948647    0.0700
     33 H33       -11.1068   -0.2912   55.4648 H       1  ZINC000470948647    0.0700
     34 H34        -8.4668    0.3808   57.9271 H       1  ZINC000470948647    0.1200
     35 H35        -6.7588    2.1302   57.6427 H       1  ZINC000470948647    0.1400
     36 H36        -6.5860    4.4554   55.3560 H       1  ZINC000470948647    0.4100
     37 H37        -2.7710    5.3186   56.7183 H       1  ZINC000470948647    0.1200
     38 H38        -3.5730    3.8320   57.3288 H       1  ZINC000470948647    0.1200
     39 H39        -1.2532    4.7788   54.0156 H       1  ZINC000470948647    0.1000
     40 H40        -1.3853    3.0646   53.5001 H       1  ZINC000470948647    0.1400
     41 H41        -3.3172    1.5487   48.3315 H       1  ZINC000470948647    0.1100
     42 H42        -2.2388    3.4641   47.1840 H       1  ZINC000470948647    0.0800
     43 H43        -0.6413    2.8768   47.7051 H       1  ZINC000470948647    0.0800
     44 H44        -2.6112    1.3497   45.9431 H       1  ZINC000470948647    0.0700
     45 H45        -1.1347    2.1692   45.3803 H       1  ZINC000470948647    0.0800
     46 H46        -0.7391   -0.2578   45.6995 H       1  ZINC000470948647    0.0700
     47 H47         0.2345    0.7033   46.8382 H       1  ZINC000470948647    0.0700
     48 H48        -2.4415   -0.6247   47.4647 H       1  ZINC000470948647    0.0700
     49 H49        -0.8440   -1.2120   47.9858 H       1  ZINC000470948647    0.0700
     50 H50        -0.4715    0.9024   49.2266 H       1  ZINC000470948647    0.0700
     51 H51        -1.9481    0.0830   49.7894 H       1  ZINC000470948647    0.0700
     52 H52        -0.6088    3.9823   49.4276 H       1  ZINC000470948647    0.1800
     53 H53        -1.3742    5.1442   51.6805 H       1  ZINC000470948647    0.1600
     54 H54        -7.2979    2.3737   52.5953 H       1  ZINC000470948647    0.0700
     55 H55        -8.9758    2.9496   52.7402 H       1  ZINC000470948647    0.0700
     56 H56        -7.6399    3.9259   53.3963 H       1  ZINC000470948647    0.0600
     57 H57        -9.7408    0.9566   53.8973 H       1  ZINC000470948647    0.1300
@<TRIPOS>BOND
     1     1     2    1
     2     1    31    1
     3     1    32    1
     4     1    33    1
     5     2    30   ar
     6     2     3   ar
     7     3     4   ar
     8     3    34    1
     9     4     5   ar
    10     4    35    1
    11     5     6    1
    12     5    28   ar
    13     6     7   am
    14     6    36    1
    15     7     8    2
    16     7     9    1
    17     9    10    1
    18     9    14    1
    19     9    11    1
    20    11    12    1
    21    11    37    1
    22    11    38    1
    23    12    13    1
    24    13    14    1
    25    13    39    1
    26    13    40    1
    27    14    15   am
    28    15    16    2
    29    15    17    1
    30    17    27    1
    31    17    18    2
    32    18    19    1
    33    19    20    1
    34    19    26    1
    35    20    25    1
    36    20    21    1
    37    20    41    1
    38    21    22    1
    39    21    42    1
    40    21    43    1
    41    22    23    1
    42    22    44    1
    43    22    45    1
    44    23    24    1
    45    23    46    1
    46    23    47    1
    47    24    25    1
    48    24    48    1
    49    24    49    1
    50    25    50    1
    51    25    51    1
    52    26    27    2
    53    26    52    1
    54    27    53    1
    55    28    29    1
    56    28    30   ar
    57    29    54    1
    58    29    55    1
    59    29    56    1
    60    30    57    1
@<TRIPOS>SUBSTRUCTURE
     1 ZINC000470948647        1 TEMP              0 ****  ****    0 ROOT


##########                                Name:    ZINC001371344729
##########                DOCK_Rotatable_Bonds:                   9
##########                         Heavy_Atoms:                  24
##########                    Molecular_Weight:             332.399
##########                DOCK_Rotatable_Bonds:                   9
##########                       Formal_Charge:          0.00999983
##########                     HBond_Acceptors:                   6
##########                        HBond_Donors:                   1
##########                         Heavy_Atoms:                  24
##########                          Grid_Score:          -30.174643
##########                     Grid_vdw_energy:          -27.445704
##########                      Grid_es_energy:           -2.728939
##########           Internal_energy_repulsive:           25.978046

@<TRIPOS>MOLECULE
ZINC001371344729
 48 49 1 0 0
SMALL
USER_CHARGES


@<TRIPOS>ATOM
      1 C1         -3.8128    2.9769   56.1823 C.3     1  ZINC001371344729   -0.1800
      2 C2         -3.5528    2.6070   54.7207 C.3     1  ZINC001371344729    0.1000
      3 N3         -2.7169    3.6363   54.0977 N.am    1  ZINC001371344729   -0.6100
      4 C4         -1.3994    3.6939   54.3758 C.2     1  ZINC001371344729    0.5100
      5 O5         -0.7071    4.5449   53.8590 O.2     1  ZINC001371344729   -0.5200
      6 C6         -0.7865    2.7006   55.3292 C.3     1  ZINC001371344729   -0.0600
      7 C7          0.6796    2.5440   55.0177 C.2     1  ZINC001371344729   -0.0100
      8 C8          1.6510    2.2880   55.9122 C.2     1  ZINC001371344729   -0.1600
      9 C9          1.4781    2.1052   57.3981 C.3     1  ZINC001371344729   -0.0800
     10 C10         2.8661    2.2293   55.1918 C.2     1  ZINC001371344729   -0.2100
     11 C11         2.5633    2.4436   53.8988 C.2     1  ZINC001371344729   -0.0300
     12 O12         1.2380    2.6373   53.7998 O.3     1  ZINC001371344729   -0.1700
     13 C13        -3.3131    4.6029   53.1722 C.3     1  ZINC001371344729    0.1200
     14 H14        -2.5321    5.2444   52.7641 H       1  ZINC001371344729    0.1100
     15 C15        -4.3378    5.4590   53.9192 C.3     1  ZINC001371344729   -0.1600
     16 C16        -4.0071    3.8558   52.0316 C.3     1  ZINC001371344729    0.1100
     17 N17        -3.0502    2.9549   51.3843 N.am    1  ZINC001371344729   -0.7200
     18 C18        -2.4006    3.3488   50.2711 C.2     1  ZINC001371344729    0.5900
     19 O19        -2.6079    4.4527   49.8046 O.2     1  ZINC001371344729   -0.5300
     20 C20        -1.4394    2.4418   49.6190 C.2     1  ZINC001371344729   -0.2300
     21 C21        -0.1480    2.7171   49.2759 C.2     1  ZINC001371344729    0.0200
     22 O22         0.3794    1.6274   48.7094 O.3     1  ZINC001371344729   -0.1700
     23 C23        -0.5205    0.6331   48.6544 C.2     1  ZINC001371344729   -0.0100
     24 C24        -0.2746   -0.7366   48.0762 C.3     1  ZINC001371344729   -0.0800
     25 C25        -1.6737    1.0532   49.1964 C.2     1  ZINC001371344729   -0.1600
     26 H26        -4.3251    3.9380   56.2283 H       1  ZINC001371344729    0.0700
     27 H27        -4.4347    2.2112   56.6459 H       1  ZINC001371344729    0.0700
     28 H28        -2.8638    3.0454   56.7142 H       1  ZINC001371344729    0.0600
     29 H29        -4.5019    2.5387   54.1889 H       1  ZINC001371344729    0.0900
     30 H30        -3.0406    1.6460   54.6748 H       1  ZINC001371344729    0.0800
     31 H31        -1.2857    1.7377   55.2214 H       1  ZINC001371344729    0.1100
     32 H32        -0.9044    3.0584   56.3521 H       1  ZINC001371344729    0.1200
     33 H33         1.2995    1.0523   57.6163 H       1  ZINC001371344729    0.0700
     34 H34         2.3811    2.4346   57.9121 H       1  ZINC001371344729    0.0700
     35 H35         0.6288    2.6963   57.7405 H       1  ZINC001371344729    0.0600
     36 H36         3.8486    2.0450   55.6008 H       1  ZINC001371344729    0.1500
     37 H37         3.2673    2.4623   53.0800 H       1  ZINC001371344729    0.2000
     38 H38        -3.8433    5.9912   54.7318 H       1  ZINC001371344729    0.0700
     39 H39        -4.7814    6.1782   53.2307 H       1  ZINC001371344729    0.0700
     40 H40        -5.1187    4.8173   54.3273 H       1  ZINC001371344729    0.0700
     41 H41        -4.8395    3.2759   52.4305 H       1  ZINC001371344729    0.0800
     42 H42        -4.3814    4.5736   51.3018 H       1  ZINC001371344729    0.0800
     43 H43        -2.8841    2.0749   51.7571 H       1  ZINC001371344729    0.4000
     44 H44         0.3621    3.6554   49.4368 H       1  ZINC001371344729    0.2100
     45 H45        -0.5269   -0.7340   47.0157 H       1  ZINC001371344729    0.0800
     46 H46         0.7759   -0.9998   48.1991 H       1  ZINC001371344729    0.0800
     47 H47        -0.8952   -1.4669   48.5954 H       1  ZINC001371344729    0.0900
     48 H48        -2.5874    0.4870   49.3011 H       1  ZINC001371344729    0.1600
@<TRIPOS>BOND
     1     1     2    1
     2     1    26    1
     3     1    27    1
     4     1    28    1
     5     2     3    1
     6     2    29    1
     7     2    30    1
     8     3     4   am
     9     3    13    1
    10     4     5    2
    11     4     6    1
    12     6     7    1
    13     6    31    1
    14     6    32    1
    15     7    12    1
    16     7     8    2
    17     8     9    1
    18     8    10    1
    19     9    33    1
    20     9    34    1
    21     9    35    1
    22    10    11    2
    23    10    36    1
    24    11    12    1
    25    11    37    1
    26    13    14    1
    27    13    15    1
    28    13    16    1
    29    15    38    1
    30    15    39    1
    31    15    40    1
    32    16    17    1
    33    16    41    1
    34    16    42    1
    35    17    18   am
    36    17    43    1
    37    18    19    2
    38    18    20    1
    39    20    25    1
    40    20    21    2
    41    21    22    1
    42    21    44    1
    43    22    23    1
    44    23    24    1
    45    23    25    2
    46    24    45    1
    47    24    46    1
    48    24    47    1
    49    25    48    1
@<TRIPOS>SUBSTRUCTURE
     1 ZINC001371344729        1 TEMP              0 ****  ****    0 ROOT


##########                                Name:    ZINC000939075213
##########                DOCK_Rotatable_Bonds:                   7
##########                         Heavy_Atoms:                  24
##########                    Molecular_Weight:             327.426
##########                DOCK_Rotatable_Bonds:                   7
##########                       Formal_Charge:          -0.0200002
##########                     HBond_Acceptors:                   5
##########                        HBond_Donors:                   2
##########                         Heavy_Atoms:                  24
##########                          Grid_Score:          -30.172695
##########                     Grid_vdw_energy:          -27.207018
##########                      Grid_es_energy:           -2.965676
##########           Internal_energy_repulsive:           10.390610

@<TRIPOS>MOLECULE
ZINC000939075213
 49 51 1 0 0
SMALL
USER_CHARGES


@<TRIPOS>ATOM
      1 C1          1.0114    4.4445   50.8184 C.3     1  ZINC000939075213   -0.1400
      2 C2          0.0145    3.3580   50.4104 C.3     1  ZINC000939075213   -0.1100
      3 H3          0.2828    2.3984   50.8524 H       1  ZINC000939075213    0.0900
      4 C4         -0.0886    3.2497   48.8686 C.3     1  ZINC000939075213    0.1100
      5 N5         -1.4254    2.6806   48.6188 N.am    1  ZINC000939075213   -0.6200
      6 C6         -1.7938    1.9939   47.5192 C.2     1  ZINC000939075213    0.5600
      7 O7         -2.9299    1.5667   47.4202 O.2     1  ZINC000939075213   -0.5400
      8 C8         -0.8603    1.7690   46.4795 C.2     1  ZINC000939075213   -0.2600
      9 C9         -1.1871    0.9660   45.4368 C.2     1  ZINC000939075213    0.0400
     10 C10        -0.2528    0.7407   44.3959 C.2     1  ZINC000939075213    0.0000
     11 C11         1.0496    1.2030   44.3518 C.2     1  ZINC000939075213   -0.1500
     12 C12         1.6062    0.7486   43.1526 C.2     1  ZINC000939075213   -0.2200
     13 C13         0.6593    0.0334   42.4984 C.2     1  ZINC000939075213    0.0200
     14 N14        -0.4738    0.0164   43.2459 N.pl3   1  ZINC000939075213   -0.5000
     15 C15        -2.2900    2.9855   49.7683 C.3     1  ZINC000939075213    0.0900
     16 C16        -1.4343    3.7607   50.7929 C.3     1  ZINC000939075213    0.1400
     17 H17        -1.5776    4.8354   50.6804 H       1  ZINC000939075213    0.1100
     18 N18        -1.7518    3.3375   52.1590 N.am    1  ZINC000939075213   -0.7200
     19 C19        -1.7255    4.2336   53.1654 C.2     1  ZINC000939075213    0.5300
     20 O20        -1.4376    5.3901   52.9403 O.2     1  ZINC000939075213   -0.5300
     21 C21        -2.0539    3.7986   54.5703 C.3     1  ZINC000939075213   -0.0600
     22 C22        -0.8407    3.1264   55.2163 C.3     1  ZINC000939075213   -0.1300
     23 C23        -2.5050    4.9812   55.3957 C.2     1  ZINC000939075213   -0.1700
     24 C24        -3.5619    4.6854   56.1022 C.2     1  ZINC000939075213   -0.1400
     25 C25        -3.9919    3.2564   55.8658 C.3     1  ZINC000939075213   -0.1100
     26 C26        -3.2646    2.8366   54.5674 C.3     1  ZINC000939075213   -0.1100
     27 H27         1.0044    4.5555   51.9028 H       1  ZINC000939075213    0.0600
     28 H28         2.0114    4.1624   50.4885 H       1  ZINC000939075213    0.0700
     29 H29         0.7290    5.3895   50.3547 H       1  ZINC000939075213    0.0600
     30 H30        -0.0049    4.2361   48.4125 H       1  ZINC000939075213    0.0700
     31 H31         0.6846    2.5856   48.4825 H       1  ZINC000939075213    0.0800
     32 H32         0.1123    2.2370   46.5165 H       1  ZINC000939075213    0.1300
     33 H33        -2.1599    0.4980   45.3998 H       1  ZINC000939075213    0.1500
     34 H34         1.5436    1.8026   45.1021 H       1  ZINC000939075213    0.1400
     35 H35         2.6128    0.9346   42.8085 H       1  ZINC000939075213    0.1400
     36 H36         0.7865   -0.4477   41.5399 H       1  ZINC000939075213    0.1600
     37 H37        -1.3027   -0.4273   43.0070 H       1  ZINC000939075213    0.4100
     38 H38        -3.1311    3.5998   49.4467 H       1  ZINC000939075213    0.0800
     39 H39        -2.6534    2.0599   50.2145 H       1  ZINC000939075213    0.0700
     40 H40        -1.9810    2.4124   52.3393 H       1  ZINC000939075213    0.4000
     41 H41        -0.0052    3.8262   55.2360 H       1  ZINC000939075213    0.0600
     42 H42        -1.0896    2.8289   56.2349 H       1  ZINC000939075213    0.0700
     43 H43        -0.5629    2.2452   54.6380 H       1  ZINC000939075213    0.0600
     44 H44        -2.0167    5.9445   55.4007 H       1  ZINC000939075213    0.1300
     45 H45        -4.0629    5.3719   56.7685 H       1  ZINC000939075213    0.1300
     46 H46        -3.6804    2.6236   56.6970 H       1  ZINC000939075213    0.0800
     47 H47        -5.0721    3.2023   55.7305 H       1  ZINC000939075213    0.0800
     48 H48        -3.8952    3.0040   53.6941 H       1  ZINC000939075213    0.0900
     49 H49        -2.9391    1.7977   54.6196 H       1  ZINC000939075213    0.0800
@<TRIPOS>BOND
     1     1     2    1
     2     1    27    1
     3     1    28    1
     4     1    29    1
     5     2     3    1
     6     2    16    1
     7     2     4    1
     8     4     5    1
     9     4    30    1
    10     4    31    1
    11     5     6   am
    12     5    15    1
    13     6     7    2
    14     6     8    1
    15     8     9    2
    16     8    32    1
    17     9    10    1
    18     9    33    1
    19    10    14    1
    20    10    11    2
    21    11    12    1
    22    11    34    1
    23    12    13    2
    24    12    35    1
    25    13    14    1
    26    13    36    1
    27    14    37    1
    28    15    16    1
    29    15    38    1
    30    15    39    1
    31    16    17    1
    32    16    18    1
    33    18    19   am
    34    18    40    1
    35    19    20    2
    36    19    21    1
    37    21    26    1
    38    21    22    1
    39    21    23    1
    40    22    41    1
    41    22    42    1
    42    22    43    1
    43    23    24    2
    44    23    44    1
    45    24    25    1
    46    24    45    1
    47    25    26    1
    48    25    46    1
    49    25    47    1
    50    26    48    1
    51    26    49    1
@<TRIPOS>SUBSTRUCTURE
     1 ZINC000939075213        1 TEMP              0 ****  ****    0 ROOT


##########                                Name:    ZINC000080099940
##########                DOCK_Rotatable_Bonds:                   4
##########                         Heavy_Atoms:                  26
##########                    Molecular_Weight:             343.388
##########                DOCK_Rotatable_Bonds:                   4
##########                       Formal_Charge:        -3.42727e-07
##########                     HBond_Acceptors:                   6
##########                        HBond_Donors:                   1
##########                         Heavy_Atoms:                  26
##########                          Grid_Score:          -30.172665
##########                     Grid_vdw_energy:          -30.924612
##########                      Grid_es_energy:            0.751947
##########           Internal_energy_repulsive:            2.334893

@<TRIPOS>MOLECULE
ZINC000080099940
 43 46 1 0 0
SMALL
USER_CHARGES


@<TRIPOS>ATOM
      1 C1         -4.9900    4.0988   54.8678 C.3     1  ZINC000080099940   -0.1100
      2 C2         -3.9552    3.9970   53.7769 C.2     1  ZINC000080099940   -0.0700
      3 C3         -4.2591    3.3827   52.6022 C.2     1  ZINC000080099940   -0.0900
      4 C4         -3.2781    3.2970   51.5930 C.2     1  ZINC000080099940    0.2300
      5 N5         -3.2966    2.7669   50.3790 N.2     1  ZINC000080099940   -0.4800
      6 C6         -2.0971    2.9453   49.8031 C.2     1  ZINC000080099940    0.1000
      7 C7         -1.7110    2.4967   48.4426 C.ar    1  ZINC000080099940   -0.0200
      8 C8         -1.8911    1.1659   48.0692 C.ar    1  ZINC000080099940   -0.0800
      9 C9         -1.5320    0.7512   46.8043 C.ar    1  ZINC000080099940   -0.1200
     10 C10        -0.9903    1.6591   45.9018 C.ar    1  ZINC000080099940    0.1500
     11 N11        -0.6266    1.2364   44.6203 N.am    1  ZINC000080099940   -0.6500
     12 C12         0.6668    0.9876   44.3346 C.2     1  ZINC000080099940    0.5700
     13 O13         1.5166    1.1307   45.1910 O.2     1  ZINC000080099940   -0.5000
     14 C14         1.0530    0.5388   42.9738 C.ar    1  ZINC000080099940    0.1300
     15 C15         0.1295   -0.1074   42.1513 C.ar    1  ZINC000080099940   -0.1700
     16 C16         0.5414   -0.5064   40.8875 C.ar    1  ZINC000080099940    0.1600
     17 N17         1.7842   -0.2629   40.5086 N.ar    1  ZINC000080099940   -0.5000
     18 C18         2.6322    0.3506   41.3114 C.ar    1  ZINC000080099940    0.3200
     19 C19         4.0385    0.6053   40.8333 C.3     1  ZINC000080099940   -0.0900
     20 N20         2.2847    0.7510   42.5153 N.ar    1  ZINC000080099940   -0.5000
     21 C21        -0.8102    2.9866   46.2720 C.ar    1  ZINC000080099940   -0.1400
     22 C22        -1.1729    3.4067   47.5341 C.ar    1  ZINC000080099940   -0.0700
     23 C23        -1.2953    3.6096   50.6818 C.2     1  ZINC000080099940   -0.0900
     24 N24        -2.0346    3.8331   51.8098 N.pl3   1  ZINC000080099940   -0.3600
     25 C25        -1.7434    4.4470   52.9940 C.2     1  ZINC000080099940    0.0600
     26 C26        -2.6743    4.5414   53.9666 C.2     1  ZINC000080099940   -0.1400
     27 H27        -4.5655    4.6241   55.7234 H       1  ZINC000080099940    0.0700
     28 H28        -5.8557    4.6477   54.4974 H       1  ZINC000080099940    0.0800
     29 H29        -5.2971    3.0980   55.1718 H       1  ZINC000080099940    0.0800
     30 H30        -5.2422    2.9642   52.4439 H       1  ZINC000080099940    0.1500
     31 H31        -2.3113    0.4600   48.7703 H       1  ZINC000080099940    0.1300
     32 H32        -1.6714   -0.2798   46.5145 H       1  ZINC000080099940    0.1400
     33 H33        -1.3050    1.1221   43.9365 H       1  ZINC000080099940    0.4200
     34 H34        -0.8793   -0.2925   42.4895 H       1  ZINC000080099940    0.1600
     35 H35        -0.1446   -1.0096   40.2221 H       1  ZINC000080099940    0.1800
     36 H36         4.0832    1.5740   40.3356 H       1  ZINC000080099940    0.0900
     37 H37         4.7180    0.6029   41.6855 H       1  ZINC000080099940    0.0900
     38 H38         4.3313   -0.1769   40.1328 H       1  ZINC000080099940    0.0900
     39 H39        -0.3892    3.6904   45.5692 H       1  ZINC000080099940    0.1300
     40 H40        -1.0331    4.4385   47.8211 H       1  ZINC000080099940    0.1400
     41 H41        -0.2692    3.9038   50.5182 H       1  ZINC000080099940    0.1900
     42 H42        -0.7603    4.8651   53.1521 H       1  ZINC000080099940    0.1700
     43 H43        -2.4304    5.0301   54.8984 H       1  ZINC000080099940    0.1500
@<TRIPOS>BOND
     1     1     2    1
     2     1    27    1
     3     1    28    1
     4     1    29    1
     5     2    26    1
     6     2     3    2
     7     3     4    1
     8     3    30    1
     9     4    24    1
    10     4     5    2
    11     5     6    1
    12     6     7    1
    13     6    23    2
    14     7    22   ar
    15     7     8   ar
    16     8     9   ar
    17     8    31    1
    18     9    10   ar
    19     9    32    1
    20    10    11    1
    21    10    21   ar
    22    11    12   am
    23    11    33    1
    24    12    13    2
    25    12    14    1
    26    14    20   ar
    27    14    15   ar
    28    15    16   ar
    29    15    34    1
    30    16    17   ar
    31    16    35    1
    32    17    18   ar
    33    18    19    1
    34    18    20   ar
    35    19    36    1
    36    19    37    1
    37    19    38    1
    38    21    22   ar
    39    21    39    1
    40    22    40    1
    41    23    24    1
    42    23    41    1
    43    24    25    1
    44    25    26    2
    45    25    42    1
    46    26    43    1
@<TRIPOS>SUBSTRUCTURE
     1 ZINC000080099940        1 TEMP              0 ****  ****    0 ROOT


##########                                Name:    ZINC001436455587
##########                DOCK_Rotatable_Bonds:                   9
##########                         Heavy_Atoms:                  21
##########                    Molecular_Weight:             378.693
##########                DOCK_Rotatable_Bonds:                   9
##########                       Formal_Charge:          -0.0200001
##########                     HBond_Acceptors:                   5
##########                        HBond_Donors:                   1
##########                         Heavy_Atoms:                  21
##########                          Grid_Score:          -30.172474
##########                     Grid_vdw_energy:          -28.625364
##########                      Grid_es_energy:           -1.547110
##########           Internal_energy_repulsive:            9.014997

@<TRIPOS>MOLECULE
ZINC001436455587
 42 42 1 0 0
SMALL
USER_CHARGES


@<TRIPOS>ATOM
      1 C1         -0.8588    2.8801   56.6208 C.3     1  ZINC001436455587   -0.1500
      2 C2         -2.3168    2.5886   56.2602 C.3     1  ZINC001436455587   -0.1300
      3 C3         -2.6640    3.2807   54.9406 C.3     1  ZINC001436455587   -0.1400
      4 C4         -4.1341    3.0255   54.6023 C.3     1  ZINC001436455587    0.0800
      5 H5         -4.3295    1.9531   54.6175 H       1  ZINC001436455587    0.0700
      6 C6         -4.4407    3.5800   53.2096 C.3     1  ZINC001436455587    0.1200
      7 N7         -3.5529    2.9525   52.2278 N.am    1  ZINC001436455587   -0.7200
      8 C8         -3.2267    3.6099   51.0973 C.2     1  ZINC001436455587    0.5200
      9 O9         -3.6670    4.7214   50.8936 O.2     1  ZINC001436455587   -0.5100
     10 C10        -2.3148    2.9637   50.0863 C.3     1  ZINC001436455587    0.0600
     11 H11        -2.4505    1.8825   50.1134 H       1  ZINC001436455587    0.1000
     12 C12        -0.8610    3.3037   50.4202 C.3     1  ZINC001436455587   -0.1800
     13 O13        -2.6301    3.4507   48.7805 O.3     1  ZINC001436455587   -0.2700
     14 C14        -2.0683    2.8008   47.7270 C.ar    1  ZINC001436455587    0.1600
     15 C15        -2.3211    1.4519   47.5285 C.ar    1  ZINC001436455587   -0.2000
     16 C16        -1.7495    0.7929   46.4568 C.ar    1  ZINC001436455587   -0.0500
     17 C17        -0.9250    1.4775   45.5821 C.ar    1  ZINC001436455587   -0.0700
     18 Cl18       -0.2078    0.6468   44.2370 Cl      1  ZINC001436455587   -0.0600
     19 C19        -0.6713    2.8238   45.7776 C.ar    1  ZINC001436455587   -0.0400
     20 C20        -1.2452    3.4879   46.8451 C.ar    1  ZINC001436455587   -0.1200
     21 Br21       -0.8985    5.3275   47.1123 Br      1  ZINC001436455587   -0.0100
     22 O22        -4.9647    3.6747   55.5670 O.3     1  ZINC001436455587   -0.3800
     23 C23        -6.2944    3.1553   55.6327 C.3     1  ZINC001436455587    0.0200
     24 H24        -0.2073    2.5051   55.8313 H       1  ZINC001436455587    0.0500
     25 H25        -0.7188    3.9559   56.7269 H       1  ZINC001436455587    0.0600
     26 H26        -0.6113    2.3871   57.5609 H       1  ZINC001436455587    0.0600
     27 H27        -2.4567    1.5128   56.1540 H       1  ZINC001436455587    0.0600
     28 H28        -2.9682    2.9637   57.0495 H       1  ZINC001436455587    0.0700
     29 H29        -2.4943    4.3531   55.0371 H       1  ZINC001436455587    0.0800
     30 H30        -2.0338    2.8832   54.1451 H       1  ZINC001436455587    0.0800
     31 H31        -5.4777    3.3634   52.9525 H       1  ZINC001436455587    0.0800
     32 H32        -4.2831    4.6585   53.2052 H       1  ZINC001436455587    0.0800
     33 H33        -3.1998    2.0640   52.3912 H       1  ZINC001436455587    0.4000
     34 H34        -0.2013    2.8363   49.6890 H       1  ZINC001436455587    0.0800
     35 H35        -0.7252    4.3849   50.3931 H       1  ZINC001436455587    0.0800
     36 H36        -0.6204    2.9321   51.4163 H       1  ZINC001436455587    0.0800
     37 H37        -2.9642    0.9166   48.2114 H       1  ZINC001436455587    0.1500
     38 H38        -1.9464   -0.2577   46.3021 H       1  ZINC001436455587    0.1400
     39 H39        -0.0275    3.3567   45.0935 H       1  ZINC001436455587    0.1500
     40 H40        -6.2645    2.1237   55.9834 H       1  ZINC001436455587    0.0500
     41 H41        -6.8857    3.7568   56.3232 H       1  ZINC001436455587    0.0900
     42 H42        -6.7470    3.1893   54.6418 H       1  ZINC001436455587    0.0400
@<TRIPOS>BOND
     1     1     2    1
     2     1    24    1
     3     1    25    1
     4     1    26    1
     5     2     3    1
     6     2    27    1
     7     2    28    1
     8     3     4    1
     9     3    29    1
    10     3    30    1
    11     4     5    1
    12     4     6    1
    13     4    22    1
    14     6     7    1
    15     6    31    1
    16     6    32    1
    17     7     8   am
    18     7    33    1
    19     8     9    2
    20     8    10    1
    21    10    11    1
    22    10    12    1
    23    10    13    1
    24    12    34    1
    25    12    35    1
    26    12    36    1
    27    13    14    1
    28    14    20   ar
    29    14    15   ar
    30    15    16   ar
    31    15    37    1
    32    16    17   ar
    33    16    38    1
    34    17    18    1
    35    17    19   ar
    36    19    20   ar
    37    19    39    1
    38    20    21    1
    39    22    23    1
    40    23    40    1
    41    23    41    1
    42    23    42    1
@<TRIPOS>SUBSTRUCTURE
     1 ZINC001436455587        1 TEMP              0 ****  ****    0 ROOT


##########                                Name:    ZINC001707804910
##########                DOCK_Rotatable_Bonds:                   4
##########                         Heavy_Atoms:                  26
##########                    Molecular_Weight:             358.403
##########                DOCK_Rotatable_Bonds:                   4
##########                       Formal_Charge:          -0.0399996
##########                     HBond_Acceptors:                  10
##########                        HBond_Donors:                   0
##########                         Heavy_Atoms:                  26
##########                          Grid_Score:          -30.167170
##########                     Grid_vdw_energy:          -29.462902
##########                      Grid_es_energy:           -0.704268
##########           Internal_energy_repulsive:            6.827316

@<TRIPOS>MOLECULE
ZINC001707804910
 48 51 1 0 0
SMALL
USER_CHARGES


@<TRIPOS>ATOM
      1 C1          3.4168    2.6194   44.3932 C.3     1  ZINC001707804910   -0.0700
      2 C2          2.0493    3.1328   44.7636 C.2     1  ZINC001707804910    0.0700
      3 N3          1.6639    4.3827   44.7292 N.2     1  ZINC001707804910   -0.2800
      4 N4          0.3278    4.4403   45.1464 N.pl3   1  ZINC001707804910   -0.3700
      5 C5         -0.4900    5.6510   45.2542 C.3     1  ZINC001707804910    0.0900
      6 C6         -0.0729    3.1836   45.4314 C.2     1  ZINC001707804910    0.0500
      7 C7         -1.4399    2.7755   45.9170 C.3     1  ZINC001707804910    0.1800
      8 N8         -1.3149    1.6306   46.8223 N.pl3   1  ZINC001707804910   -0.4600
      9 C9         -1.3710    0.3054   46.4900 C.2     1  ZINC001707804910    0.1900
     10 C10        -1.5751   -0.2611   45.1085 C.3     1  ZINC001707804910   -0.0700
     11 N11        -1.2144   -0.3768   47.5889 N.2     1  ZINC001707804910   -0.2800
     12 N12        -1.0644    0.4211   48.5854 N.2     1  ZINC001707804910   -0.3000
     13 C13        -1.1126    1.6653   48.1713 C.2     1  ZINC001707804910    0.3500
     14 N14        -0.9898    2.8003   48.9570 N.3     1  ZINC001707804910   -0.4600
     15 C15         0.2366    2.7509   49.7660 C.3     1  ZINC001707804910    0.0200
     16 C16         0.3629    4.0468   50.5713 C.3     1  ZINC001707804910    0.0700
     17 O17        -0.8084    4.2196   51.3736 O.3     1  ZINC001707804910   -0.3600
     18 C18        -2.0213    4.2726   50.6177 C.3     1  ZINC001707804910    0.2000
     19 H19        -1.9890    5.1232   49.9369 H       1  ZINC001707804910    0.1000
     20 C20        -3.1921    4.4223   51.5548 C.2     1  ZINC001707804910    0.1600
     21 N21        -3.7465    5.5422   51.9230 N.2     1  ZINC001707804910   -0.2500
     22 N22        -4.7192    5.2928   52.7274 N.2     1  ZINC001707804910   -0.2900
     23 C23        -4.8184    4.0054   52.8997 C.2     1  ZINC001707804910    0.1700
     24 C24        -5.8273    3.2967   53.7664 C.3     1  ZINC001707804910   -0.0600
     25 O25        -3.8593    3.4249   52.1591 O.3     1  ZINC001707804910   -0.2200
     26 C26        -2.1716    2.9790   49.8128 C.3     1  ZINC001707804910    0.0400
     27 C27         0.9710    2.3549   45.1979 C.2     1  ZINC001707804910   -0.2300
     28 H28         3.4389    2.3786   43.3304 H       1  ZINC001707804910    0.0800
     29 H29         4.1627    3.3847   44.6079 H       1  ZINC001707804910    0.0700
     30 H30         3.6380    1.7235   44.9734 H       1  ZINC001707804910    0.0800
     31 H31        -0.9168    5.8892   44.2799 H       1  ZINC001707804910    0.0800
     32 H32        -1.2934    5.4842   45.9717 H       1  ZINC001707804910    0.0900
     33 H33         0.1316    6.4806   45.5911 H       1  ZINC001707804910    0.0900
     34 H34        -1.9011    3.6091   46.4468 H       1  ZINC001707804910    0.1100
     35 H35        -2.0605    2.4987   45.0647 H       1  ZINC001707804910    0.1200
     36 H36        -0.6180   -0.3048   44.5887 H       1  ZINC001707804910    0.0900
     37 H37        -1.9929   -1.2648   45.1855 H       1  ZINC001707804910    0.1000
     38 H38        -2.2621    0.3767   44.5521 H       1  ZINC001707804910    0.0700
     39 H39         0.1890    1.9018   50.4479 H       1  ZINC001707804910    0.0700
     40 H40         1.1010    2.6440   49.1106 H       1  ZINC001707804910    0.0900
     41 H41         1.2403    3.9909   51.2157 H       1  ZINC001707804910    0.1200
     42 H42         0.4646    4.8908   49.8892 H       1  ZINC001707804910    0.0700
     43 H43        -6.7160    3.0692   53.1776 H       1  ZINC001707804910    0.1000
     44 H44        -5.3948    2.3704   54.1443 H       1  ZINC001707804910    0.1000
     45 H45        -6.1010    3.9382   54.6041 H       1  ZINC001707804910    0.1100
     46 H46        -3.0653    3.0387   49.1916 H       1  ZINC001707804910    0.1000
     47 H47        -2.2579    2.1336   50.4954 H       1  ZINC001707804910    0.0800
     48 H48         0.9732    1.2830   45.3297 H       1  ZINC001707804910    0.1500
@<TRIPOS>BOND
     1     1     2    1
     2     1    28    1
     3     1    29    1
     4     1    30    1
     5     2    27    1
     6     2     3    2
     7     3     4    1
     8     4     5    1
     9     4     6    1
    10     5    31    1
    11     5    32    1
    12     5    33    1
    13     6     7    1
    14     6    27    2
    15     7     8    1
    16     7    34    1
    17     7    35    1
    18     8    13    1
    19     8     9    1
    20     9    10    1
    21     9    11    2
    22    10    36    1
    23    10    37    1
    24    10    38    1
    25    11    12    1
    26    12    13    2
    27    13    14    1
    28    14    26    1
    29    14    15    1
    30    15    16    1
    31    15    39    1
    32    15    40    1
    33    16    17    1
    34    16    41    1
    35    16    42    1
    36    17    18    1
    37    18    19    1
    38    18    20    1
    39    18    26    1
    40    20    25    1
    41    20    21    2
    42    21    22    1
    43    22    23    2
    44    23    24    1
    45    23    25    1
    46    24    43    1
    47    24    44    1
    48    24    45    1
    49    26    46    1
    50    26    47    1
    51    27    48    1
@<TRIPOS>SUBSTRUCTURE
     1 ZINC001707804910        1 TEMP              0 ****  ****    0 ROOT


##########                                Name:    ZINC000426607143
##########                DOCK_Rotatable_Bonds:                   3
##########                         Heavy_Atoms:                  25
##########                    Molecular_Weight:             419.302
##########                DOCK_Rotatable_Bonds:                   3
##########                       Formal_Charge:         1.49012e-07
##########                     HBond_Acceptors:                   7
##########                        HBond_Donors:                   0
##########                         Heavy_Atoms:                  25
##########                          Grid_Score:          -30.164518
##########                     Grid_vdw_energy:          -30.601442
##########                      Grid_es_energy:            0.436923
##########           Internal_energy_repulsive:           12.913780

@<TRIPOS>MOLECULE
ZINC000426607143
 40 43 1 0 0
SMALL
USER_CHARGES


@<TRIPOS>ATOM
      1 C1         -6.3311    4.2326   53.5894 C.3     1  ZINC000426607143   -0.0900
      2 C2         -5.6098    3.4622   54.6652 C.2     1  ZINC000426607143    0.1600
      3 N3         -6.2428    2.9535   55.6775 N.2     1  ZINC000426607143   -0.4600
      4 S4         -5.0983    2.1731   56.6548 S.3     1  ZINC000426607143    0.2900
      5 C5         -3.7393    2.5465   55.6683 C.2     1  ZINC000426607143   -0.1300
      6 C6         -2.3025    2.1621   55.9111 C.3     1  ZINC000426607143   -0.0800
      7 C7         -4.2372    3.2580   54.6174 C.2     1  ZINC000426607143   -0.1200
      8 C8         -3.3839    3.7781   53.5214 C.2     1  ZINC000426607143    0.2500
      9 N9         -2.3236    4.5329   53.6539 N.2     1  ZINC000426607143   -0.3700
     10 O10        -1.8525    4.7844   52.5649 O.3     1  ZINC000426607143    0.0900
     11 C11        -2.5799    4.2033   51.6058 C.2     1  ZINC000426607143    0.2000
     12 C12        -2.3252    4.2741   50.1223 C.3     1  ZINC000426607143   -0.0300
     13 H13        -3.0185    4.9699   49.6499 H       1  ZINC000426607143    0.1600
     14 C14        -0.8632    4.6939   49.8436 C.3     1  ZINC000426607143   -0.1200
     15 C15        -0.5267    3.8519   48.5929 C.3     1  ZINC000426607143    0.1000
     16 N16        -1.4201    2.6889   48.6518 N.am    1  ZINC000426607143   -0.5800
     17 C17        -1.2320    1.5109   47.9199 C.ar    1  ZINC000426607143    0.1700
     18 C18        -0.9054    0.3305   48.5734 C.ar    1  ZINC000426607143   -0.1000
     19 C19        -0.7204   -0.8308   47.8483 C.ar    1  ZINC000426607143   -0.1000
     20 C20        -0.8596   -0.8186   46.4728 C.ar    1  ZINC000426607143   -0.1000
     21 C21        -1.1849    0.3553   45.8180 C.ar    1  ZINC000426607143   -0.0900
     22 C22        -1.3773    1.5189   46.5378 C.ar    1  ZINC000426607143   -0.0800
     23 Br23       -1.8220    3.1238   45.6420 Br      1  ZINC000426607143   -0.0400
     24 C24        -2.4454    2.9011   49.4984 C.2     1  ZINC000426607143    0.5300
     25 O25        -3.3320    2.1061   49.7287 O.2     1  ZINC000426607143   -0.4900
     26 N26        -3.5527    3.5563   52.1979 N.2     1  ZINC000426607143   -0.4600
     27 H27        -6.6529    3.5472   52.8053 H       1  ZINC000426607143    0.0900
     28 H28        -7.2020    4.7278   54.0189 H       1  ZINC000426607143    0.0800
     29 H29        -5.6602    4.9800   53.1658 H       1  ZINC000426607143    0.1100
     30 H30        -2.2307    1.5902   56.8363 H       1  ZINC000426607143    0.0800
     31 H31        -1.9434    1.5553   55.0800 H       1  ZINC000426607143    0.0900
     32 H32        -1.6943    3.0630   55.9927 H       1  ZINC000426607143    0.0900
     33 H33        -0.7983    5.7598   49.6253 H       1  ZINC000426607143    0.1100
     34 H34        -0.2152    4.4280   50.6788 H       1  ZINC000426607143    0.1000
     35 H35        -0.7173    4.4285   47.6877 H       1  ZINC000426607143    0.0900
     36 H36         0.5142    3.5300   48.6239 H       1  ZINC000426607143    0.0900
     37 H37        -0.7957    0.3200   49.6478 H       1  ZINC000426607143    0.1400
     38 H38        -0.4663   -1.7492   48.3564 H       1  ZINC000426607143    0.1400
     39 H39        -0.7136   -1.7277   45.9084 H       1  ZINC000426607143    0.1400
     40 H40        -1.2928    0.3616   44.7434 H       1  ZINC000426607143    0.1400
@<TRIPOS>BOND
     1     1     2    1
     2     1    27    1
     3     1    28    1
     4     1    29    1
     5     2     7    1
     6     2     3    2
     7     3     4    1
     8     4     5    1
     9     5     6    1
    10     5     7    2
    11     6    30    1
    12     6    31    1
    13     6    32    1
    14     7     8    1
    15     8    26    1
    16     8     9    2
    17     9    10    1
    18    10    11    1
    19    11    12    1
    20    11    26    2
    21    12    13    1
    22    12    24    1
    23    12    14    1
    24    14    15    1
    25    14    33    1
    26    14    34    1
    27    15    16    1
    28    15    35    1
    29    15    36    1
    30    16    17    1
    31    16    24   am
    32    17    22   ar
    33    17    18   ar
    34    18    19   ar
    35    18    37    1
    36    19    20   ar
    37    19    38    1
    38    20    21   ar
    39    20    39    1
    40    21    22   ar
    41    21    40    1
    42    22    23    1
    43    24    25    2
@<TRIPOS>SUBSTRUCTURE
     1 ZINC000426607143        1 TEMP              0 ****  ****    0 ROOT


##########                                Name:    ZINC000265786263
##########                DOCK_Rotatable_Bonds:                   7
##########                         Heavy_Atoms:                  28
##########                    Molecular_Weight:             386.451
##########                DOCK_Rotatable_Bonds:                   7
##########                       Formal_Charge:           0.0499992
##########                     HBond_Acceptors:                   8
##########                        HBond_Donors:                   2
##########                         Heavy_Atoms:                  28
##########                          Grid_Score:          -30.145594
##########                     Grid_vdw_energy:          -27.930590
##########                      Grid_es_energy:           -2.215005
##########           Internal_energy_repulsive:           19.428778

@<TRIPOS>MOLECULE
ZINC000265786263
 54 57 1 0 0
SMALL
USER_CHARGES


@<TRIPOS>ATOM
      1 C1        -14.7934   -4.0920   58.3584 C.3     1  ZINC000265786263   -0.1500
      2 C2        -15.0542   -2.6473   58.7897 C.3     1  ZINC000265786263    0.1600
      3 C3        -16.2388   -2.0625   58.0178 C.3     1  ZINC000265786263   -0.1600
      4 C4        -17.6394   -2.3038   58.5842 C.3     1  ZINC000265786263   -0.1600
      5 C5        -17.0087   -0.9126   58.6704 C.3     1  ZINC000265786263   -0.1600
      6 N6        -15.2910   -2.5747   60.2418 N.am    1  ZINC000265786263   -0.7100
      7 C7        -14.3184   -1.7977   60.7518 C.2     1  ZINC000265786263    0.7100
      8 O8        -14.2175   -1.5296   61.9330 O.2     1  ZINC000265786263   -0.5400
      9 N9        -13.4748   -1.3528   59.8135 N.am    1  ZINC000265786263   -0.5600
     10 C10       -12.3232   -0.4888   60.0849 C.3     1  ZINC000265786263    0.1000
     11 C11       -11.1268   -1.3391   60.4264 C.2     1  ZINC000265786263    0.5100
     12 O12       -11.2402   -2.5444   60.4989 O.2     1  ZINC000265786263   -0.5300
     13 N13        -9.9307   -0.7601   60.6511 N.am    1  ZINC000265786263   -0.6100
     14 C14        -9.7729    0.7003   60.5760 C.3     1  ZINC000265786263    0.1100
     15 C15        -9.0847    1.1822   61.8576 C.3     1  ZINC000265786263    0.0400
     16 N16        -7.8368    0.4318   62.0512 N.3     1  ZINC000265786263   -0.5300
     17 C17        -7.0616    0.9796   63.1724 C.3     1  ZINC000265786263    0.0900
     18 C18        -7.8776    0.8944   64.4365 C.ar    1  ZINC000265786263   -0.0600
     19 C19        -8.7007    1.9441   64.7992 C.ar    1  ZINC000265786263   -0.1300
     20 C20        -9.4507    1.8690   65.9586 C.ar    1  ZINC000265786263   -0.1000
     21 C21        -9.3791    0.7443   66.7572 C.ar    1  ZINC000265786263   -0.1400
     22 C22        -8.5537   -0.3107   66.3952 C.ar    1  ZINC000265786263    0.1100
     23 O23        -8.4818   -1.4185   67.1791 O.3     1  ZINC000265786263   -0.5000
     24 C24        -7.8067   -0.2352   65.2289 C.ar    1  ZINC000265786263   -0.1200
     25 C25        -8.1006   -1.0004   62.2438 C.3     1  ZINC000265786263    0.0400
     26 C26        -8.7499   -1.5713   60.9841 C.3     1  ZINC000265786263    0.1200
     27 C27       -13.8147   -1.7984   58.5878 C.2     1  ZINC000265786263    0.5400
     28 O28       -13.2468   -1.5688   57.5417 O.2     1  ZINC000265786263   -0.4500
     29 H29       -13.9718   -4.5035   58.9447 H       1  ZINC000265786263    0.0700
     30 H30       -15.6911   -4.6879   58.5226 H       1  ZINC000265786263    0.0800
     31 H31       -14.5314   -4.1137   57.3006 H       1  ZINC000265786263    0.0900
     32 H32       -16.1303   -2.0441   56.9334 H       1  ZINC000265786263    0.1100
     33 H33       -18.4528   -2.4444   57.8723 H       1  ZINC000265786263    0.1000
     34 H34       -17.7171   -2.8793   59.5067 H       1  ZINC000265786263    0.1100
     35 H35       -16.6714   -0.5727   59.6496 H       1  ZINC000265786263    0.1000
     36 H36       -17.4071   -0.1379   58.0152 H       1  ZINC000265786263    0.1000
     37 H37       -16.0085   -3.0032   60.7341 H       1  ZINC000265786263    0.4400
     38 H38       -12.1027    0.1108   59.2017 H       1  ZINC000265786263    0.1300
     39 H39       -12.5524    0.1693   60.9230 H       1  ZINC000265786263    0.1300
     40 H40        -9.1604    0.9585   59.7122 H       1  ZINC000265786263    0.0900
     41 H41       -10.7524    1.1703   60.4875 H       1  ZINC000265786263    0.0900
     42 H42        -8.8603    2.2454   61.7722 H       1  ZINC000265786263    0.0900
     43 H43        -9.7446    1.0166   62.7092 H       1  ZINC000265786263    0.0400
     44 H44        -6.1428    0.4058   63.2936 H       1  ZINC000265786263    0.0900
     45 H45        -6.8149    2.0216   62.9687 H       1  ZINC000265786263    0.0500
     46 H46        -8.7579    2.8245   64.1763 H       1  ZINC000265786263    0.1200
     47 H47       -10.0928    2.6905   66.2400 H       1  ZINC000265786263    0.1300
     48 H48        -9.9649    0.6863   67.6627 H       1  ZINC000265786263    0.1300
     49 H49        -9.0405   -1.3794   67.9674 H       1  ZINC000265786263    0.3900
     50 H50        -7.1635   -1.0550   64.9451 H       1  ZINC000265786263    0.1300
     51 H51        -7.1625   -1.5202   62.4385 H       1  ZINC000265786263    0.1000
     52 H52        -8.7742   -1.1356   63.0900 H       1  ZINC000265786263    0.0400
     53 H53        -9.0514   -2.6034   61.1631 H       1  ZINC000265786263    0.1000
     54 H54        -8.0411   -1.5321   60.1569 H       1  ZINC000265786263    0.0800
@<TRIPOS>BOND
     1     1     2    1
     2     1    29    1
     3     1    30    1
     4     1    31    1
     5     2    27    1
     6     2     3    1
     7     2     6    1
     8     3     5    1
     9     3     4    1
    10     3    32    1
    11     4     5    1
    12     4    33    1
    13     4    34    1
    14     5    35    1
    15     5    36    1
    16     6     7   am
    17     6    37    1
    18     7     8    2
    19     7     9   am
    20     9    10    1
    21     9    27   am
    22    10    11    1
    23    10    38    1
    24    10    39    1
    25    11    12    2
    26    11    13   am
    27    13    26    1
    28    13    14    1
    29    14    15    1
    30    14    40    1
    31    14    41    1
    32    15    16    1
    33    15    42    1
    34    15    43    1
    35    16    17    1
    36    16    25    1
    37    17    18    1
    38    17    44    1
    39    17    45    1
    40    18    24   ar
    41    18    19   ar
    42    19    20   ar
    43    19    46    1
    44    20    21   ar
    45    20    47    1
    46    21    22   ar
    47    21    48    1
    48    22    23    1
    49    22    24   ar
    50    23    49    1
    51    24    50    1
    52    25    26    1
    53    25    51    1
    54    25    52    1
    55    26    53    1
    56    26    54    1
    57    27    28    2
@<TRIPOS>SUBSTRUCTURE
     1 ZINC000265786263        1 TEMP              0 ****  ****    0 ROOT


##########                                Name:    ZINC001002468398
##########                DOCK_Rotatable_Bonds:                   7
##########                         Heavy_Atoms:                  24
##########                    Molecular_Weight:             341.358
##########                DOCK_Rotatable_Bonds:                   7
##########                       Formal_Charge:           0.0100001
##########                     HBond_Acceptors:                   8
##########                        HBond_Donors:                   0
##########                         Heavy_Atoms:                  24
##########                          Grid_Score:          -30.131256
##########                     Grid_vdw_energy:          -29.507250
##########                      Grid_es_energy:           -0.624007
##########           Internal_energy_repulsive:           35.032642

@<TRIPOS>MOLECULE
ZINC001002468398
 45 47 1 0 0
SMALL
USER_CHARGES


@<TRIPOS>ATOM
      1 C1          4.4812    0.0768   40.8951 C.3     1  ZINC001002468398   -0.1400
      2 C2          3.4885    0.9155   41.7027 C.3     1  ZINC001002468398   -0.0500
      3 C3          2.1117    0.3139   41.5867 C.2     1  ZINC001002468398    0.0500
      4 C4          1.1216    0.3712   42.5187 C.2     1  ZINC001002468398   -0.0800
      5 C5          1.1935    1.0342   43.8333 C.2     1  ZINC001002468398    0.6000
      6 O6          2.1899    1.6573   44.1463 O.2     1  ZINC001002468398   -0.5300
      7 N7          0.1552    0.9499   44.6884 N.am    1  ZINC001002468398   -0.6000
      8 C8         -1.0450    0.1992   44.3113 C.3     1  ZINC001002468398    0.0900
      9 C9          0.2268    1.6087   45.9949 C.3     1  ZINC001002468398    0.1000
     10 C10        -0.2981    3.0407   45.8732 C.3     1  ZINC001002468398    0.1300
     11 H11        -1.0693    3.0887   45.1045 H       1  ZINC001002468398    0.0800
     12 C12         0.8602    3.9956   45.5152 C.3     1  ZINC001002468398   -0.1300
     13 C13         0.5346    5.2640   46.3473 C.3     1  ZINC001002468398   -0.1300
     14 C14        -0.0699    4.6462   47.6327 C.3     1  ZINC001002468398    0.1000
     15 N15        -0.8495    3.4824   47.1626 N.am    1  ZINC001002468398   -0.6100
     16 C16        -1.8896    2.9205   47.8098 C.2     1  ZINC001002468398    0.5600
     17 O17        -2.4581    1.9635   47.3280 O.2     1  ZINC001002468398   -0.5100
     18 C18        -2.3462    3.4811   49.1320 C.3     1  ZINC001002468398   -0.2000
     19 H19        -2.8259    4.4588   49.0876 H       1  ZINC001002468398    0.1500
     20 C20        -1.4954    3.1670   50.3642 C.3     1  ZINC001002468398   -0.1500
     21 C21        -2.8564    2.4909   50.1809 C.3     1  ZINC001002468398    0.2300
     22 F22        -3.9026    2.9098   51.0098 F       1  ZINC001002468398   -0.1500
     23 F23        -2.8630    1.1343   49.8393 F       1  ZINC001002468398   -0.1400
     24 N24         0.0524   -0.2981   42.0082 N.2     1  ZINC001002468398   -0.4600
     25 C25         0.3690   -0.7416   40.8287 C.2     1  ZINC001002468398    0.1700
     26 O26         1.6264   -0.3756   40.5420 O.3     1  ZINC001002468398   -0.2000
     27 H27         4.4960   -0.9418   41.2828 H       1  ZINC001002468398    0.0600
     28 H28         4.1778    0.0629   39.8483 H       1  ZINC001002468398    0.0600
     29 H29         5.4771    0.5120   40.9791 H       1  ZINC001002468398    0.0700
     30 H30         3.7919    0.9295   42.7495 H       1  ZINC001002468398    0.1200
     31 H31         3.4737    1.9341   41.3151 H       1  ZINC001002468398    0.0900
     32 H32        -0.7884   -0.8513   44.1741 H       1  ZINC001002468398    0.0700
     33 H33        -1.7931    0.2905   45.0989 H       1  ZINC001002468398    0.0700
     34 H34        -1.4467    0.5998   43.3806 H       1  ZINC001002468398    0.0700
     35 H35        -0.3814    1.0586   46.7131 H       1  ZINC001002468398    0.0900
     36 H36         1.2620    1.6289   46.3354 H       1  ZINC001002468398    0.0900
     37 H37         1.8175    3.5712   45.8177 H       1  ZINC001002468398    0.1000
     38 H38         0.8573    4.2225   44.4491 H       1  ZINC001002468398    0.0800
     39 H39         1.4407    5.8264   46.5730 H       1  ZINC001002468398    0.0900
     40 H40        -0.1949    5.8910   45.8347 H       1  ZINC001002468398    0.0800
     41 H41         0.7228    4.3254   48.3086 H       1  ZINC001002468398    0.0800
     42 H42        -0.7240    5.3642   48.1275 H       1  ZINC001002468398    0.0800
     43 H43        -0.6053    2.5549   50.2185 H       1  ZINC001002468398    0.1300
     44 H44        -1.4156    3.9380   51.1307 H       1  ZINC001002468398    0.1400
     45 H45        -0.2798   -1.3113   40.1799 H       1  ZINC001002468398    0.2600
@<TRIPOS>BOND
     1     1     2    1
     2     1    27    1
     3     1    28    1
     4     1    29    1
     5     2     3    1
     6     2    30    1
     7     2    31    1
     8     3    26    1
     9     3     4    2
    10     4     5    1
    11     4    24    1
    12     5     6    2
    13     5     7   am
    14     7     8    1
    15     7     9    1
    16     8    32    1
    17     8    33    1
    18     8    34    1
    19     9    10    1
    20     9    35    1
    21     9    36    1
    22    10    11    1
    23    10    15    1
    24    10    12    1
    25    12    13    1
    26    12    37    1
    27    12    38    1
    28    13    14    1
    29    13    39    1
    30    13    40    1
    31    14    15    1
    32    14    41    1
    33    14    42    1
    34    15    16   am
    35    16    17    2
    36    16    18    1
    37    18    19    1
    38    18    21    1
    39    18    20    1
    40    20    21    1
    41    20    43    1
    42    20    44    1
    43    21    22    1
    44    21    23    1
    45    24    25    2
    46    25    26    1
    47    25    45    1
@<TRIPOS>SUBSTRUCTURE
     1 ZINC001002468398        1 TEMP              0 ****  ****    0 ROOT


##########                                Name:    ZINC001291841503
##########                DOCK_Rotatable_Bonds:                   7
##########                         Heavy_Atoms:                  28
##########                    Molecular_Weight:             397.544
##########                DOCK_Rotatable_Bonds:                   7
##########                       Formal_Charge:         -0.00999964
##########                     HBond_Acceptors:                   7
##########                        HBond_Donors:                   0
##########                         Heavy_Atoms:                  28
##########                          Grid_Score:          -30.121284
##########                     Grid_vdw_energy:          -29.792604
##########                      Grid_es_energy:           -0.328680
##########           Internal_energy_repulsive:           19.369450

@<TRIPOS>MOLECULE
ZINC001291841503
 55 58 1 0 0
SMALL
USER_CHARGES


@<TRIPOS>ATOM
      1 C1         -3.3576    6.9345   50.9092 C.3     1  ZINC001291841503   -0.1500
      2 C2         -2.2624    6.5699   49.9048 C.3     1  ZINC001291841503   -0.1100
      3 C3         -2.1470    5.0475   49.8062 C.3     1  ZINC001291841503    0.0500
      4 H4         -3.1442    4.6097   49.7601 H       1  ZINC001291841503    0.0900
      5 C5         -1.3797    4.6814   48.5619 C.2     1  ZINC001291841503    0.2000
      6 N6         -0.6098    5.4718   47.8690 N.2     1  ZINC001291841503   -0.2700
      7 N7         -0.1110    4.8361   46.8694 N.2     1  ZINC001291841503   -0.3100
      8 C8         -0.5394    3.5959   46.8711 C.2     1  ZINC001291841503    0.3600
      9 N9         -0.2171    2.6117   45.9502 N.3     1  ZINC001291841503   -0.4500
     10 C10        -1.3188    2.3962   45.0027 C.3     1  ZINC001291841503    0.0200
     11 C11         1.0284    2.9393   45.2437 C.3     1  ZINC001291841503    0.0700
     12 H12         0.9505    3.9096   44.7533 H       1  ZINC001291841503    0.0800
     13 C13         2.2398    2.9068   46.2151 C.3     1  ZINC001291841503   -0.1400
     14 C14         3.3892    2.5482   45.2399 C.3     1  ZINC001291841503    0.0500
     15 O15         2.8088    1.6342   44.2959 O.3     1  ZINC001291841503   -0.3800
     16 C16         1.3890    1.8363   44.2255 C.3     1  ZINC001291841503    0.0600
     17 N17        -1.3576    3.4567   47.9543 N.pl3   1  ZINC001291841503   -0.4700
     18 C18        -2.0719    2.2483   48.3737 C.3     1  ZINC001291841503    0.1900
     19 C19        -1.0924    1.1134   48.5272 C.2     1  ZINC001291841503   -0.2700
     20 C20         0.2067    1.2300   48.8185 C.2     1  ZINC001291841503    0.0800
     21 N21         0.8538    0.0848   48.8984 N.2     1  ZINC001291841503   -0.4800
     22 C22         0.1729   -0.9913   48.6907 C.2     1  ZINC001291841503    0.0500
     23 C23         0.7335   -2.3894   48.7378 C.3     1  ZINC001291841503   -0.0800
     24 S24        -1.4590   -0.6020   48.3615 S.3     1  ZINC001291841503    0.1800
     25 C25        -1.4221    4.5192   51.0171 C.ar    1  ZINC001291841503   -0.0900
     26 C26        -0.0454    4.6172   51.0959 C.ar    1  ZINC001291841503   -0.0900
     27 C27         0.6196    4.1327   52.2067 C.ar    1  ZINC001291841503   -0.1200
     28 C28        -0.0920    3.5506   53.2389 C.ar    1  ZINC001291841503   -0.1200
     29 C29        -1.4688    3.4534   53.1606 C.ar    1  ZINC001291841503   -0.1200
     30 C30        -2.1342    3.9418   52.0517 C.ar    1  ZINC001291841503   -0.1100
     31 H31        -4.3087    6.5187   50.5764 H       1  ZINC001291841503    0.0500
     32 H32        -3.1045    6.5252   51.8871 H       1  ZINC001291841503    0.0500
     33 H33        -3.4398    8.0191   50.9794 H       1  ZINC001291841503    0.0600
     34 H34        -2.5156    6.9791   48.9268 H       1  ZINC001291841503    0.0800
     35 H35        -1.3113    6.9857   50.2375 H       1  ZINC001291841503    0.0800
     36 H36        -1.4617    3.2941   44.4013 H       1  ZINC001291841503    0.0500
     37 H37        -1.0782    1.5567   44.3505 H       1  ZINC001291841503    0.0900
     38 H38        -2.2341    2.1782   45.5530 H       1  ZINC001291841503    0.0700
     39 H39         2.4028    3.8825   46.6727 H       1  ZINC001291841503    0.0900
     40 H40         2.1138    2.1350   46.9745 H       1  ZINC001291841503    0.0800
     41 H41         3.7456    3.4432   44.7299 H       1  ZINC001291841503    0.0700
     42 H42         4.2063    2.0679   45.7783 H       1  ZINC001291841503    0.0900
     43 H43         0.8707    0.9132   44.4854 H       1  ZINC001291841503    0.0800
     44 H44         1.1092    2.1482   43.2192 H       1  ZINC001291841503    0.0700
     45 H45        -2.5677    2.4317   49.3269 H       1  ZINC001291841503    0.1100
     46 H46        -2.8161    1.9867   47.6215 H       1  ZINC001291841503    0.1100
     47 H47         0.6868    2.1846   48.9757 H       1  ZINC001291841503    0.1700
     48 H48         0.6492   -2.7806   49.7517 H       1  ZINC001291841503    0.0900
     49 H49         0.1746   -3.0283   48.0542 H       1  ZINC001291841503    0.0800
     50 H50         1.7825   -2.3705   48.4419 H       1  ZINC001291841503    0.0900
     51 H51         0.5105    5.0721   50.2894 H       1  ZINC001291841503    0.1300
     52 H52         1.6952    4.2087   52.2678 H       1  ZINC001291841503    0.1200
     53 H53         0.4275    3.1713   54.1064 H       1  ZINC001291841503    0.1200
     54 H54        -2.0247    2.9983   53.9670 H       1  ZINC001291841503    0.1200
     55 H55        -3.2098    3.8659   51.9906 H       1  ZINC001291841503    0.1200
@<TRIPOS>BOND
     1     1     2    1
     2     1    31    1
     3     1    32    1
     4     1    33    1
     5     2     3    1
     6     2    34    1
     7     2    35    1
     8     3     4    1
     9     3     5    1
    10     3    25    1
    11     5    17    1
    12     5     6    2
    13     6     7    1
    14     7     8    2
    15     8     9    1
    16     8    17    1
    17     9    10    1
    18     9    11    1
    19    10    36    1
    20    10    37    1
    21    10    38    1
    22    11    12    1
    23    11    16    1
    24    11    13    1
    25    13    14    1
    26    13    39    1
    27    13    40    1
    28    14    15    1
    29    14    41    1
    30    14    42    1
    31    15    16    1
    32    16    43    1
    33    16    44    1
    34    17    18    1
    35    18    19    1
    36    18    45    1
    37    18    46    1
    38    19    24    1
    39    19    20    2
    40    20    21    1
    41    20    47    1
    42    21    22    2
    43    22    23    1
    44    22    24    1
    45    23    48    1
    46    23    49    1
    47    23    50    1
    48    25    30   ar
    49    25    26   ar
    50    26    27   ar
    51    26    51    1
    52    27    28   ar
    53    27    52    1
    54    28    29   ar
    55    28    53    1
    56    29    30   ar
    57    29    54    1
    58    30    55    1
@<TRIPOS>SUBSTRUCTURE
     1 ZINC001291841503        1 TEMP              0 ****  ****    0 ROOT


##########                                Name:     oleObject15.pdb
##########                DOCK_Rotatable_Bonds:                   9
##########                         Heavy_Atoms:                  29
##########                    Molecular_Weight:             395.545
##########                DOCK_Rotatable_Bonds:                   9
##########                       Formal_Charge:         0.000700183
##########                     HBond_Acceptors:                   5
##########                        HBond_Donors:                   1
##########                         Heavy_Atoms:                  29
##########                          Grid_Score:          -30.112179
##########                     Grid_vdw_energy:          -29.760603
##########                      Grid_es_energy:           -0.351577
##########           Internal_energy_repulsive:           12.237838

@<TRIPOS>MOLECULE
oleObject15.pdb
 62 64 1 0 0
SMALL
NO_CHARGES


@<TRIPOS>ATOM
      1 O           1.6892    1.0060   43.2362 O.3     1  UNL        -0.3745
      2 C           0.9995    1.3065   44.4706 C.3     1  UNL         0.0600
      3 C          -0.4394    0.7475   44.3798 C.3     1  UNL         0.0217
      4 N          -1.1484    0.6571   45.6777 N.4     1  UNL        -0.3010
      5 C          -0.4750   -0.1849   46.6930 C.3     1  UNL        -0.0010
      6 C          -1.3309   -0.3410   47.9688 C.3     1  UNL        -0.0289
      7 C          -1.7656    1.0168   48.5710 C.3     1  UNL         0.0382
      8 C          -2.3868    1.9120   47.4692 C.3     1  UNL        -0.0289
      9 C          -1.5269    1.9926   46.1861 C.3     1  UNL        -0.0010
     10 C          -0.5975    1.7161   49.3096 C.2     1  UNL         0.2156
     11 O           0.5655    1.5202   49.0067 O.2     1  UNL        -0.2774
     12 N          -0.8678    2.6310   50.3192 N.am    1  UNL        -0.3025
     13 C           0.1025    3.3912   51.1293 C.3     1  UNL         0.0900
     14 C           0.4486    4.7501   50.5233 C.ar    1  UNL        -0.0217
     15 C          -0.4863    5.4594   49.7426 C.ar    1  UNL        -0.0568
     16 C          -0.1474    6.7020   49.1825 C.ar    1  UNL        -0.0619
     17 C           1.1274    7.2472   49.4009 C.ar    1  UNL        -0.0622
     18 C           2.0620    6.5498   50.1822 C.ar    1  UNL        -0.0619
     19 C           1.7227    5.3074   50.7424 C.ar    1  UNL        -0.0568
     20 C          -0.3677    3.5476   52.5725 C.ar    1  UNL         0.0652
     21 C          -1.7371    3.6120   52.9033 C.ar    1  UNL        -0.0383
     22 C          -2.1069    3.7653   54.2491 C.ar    1  UNL        -0.0588
     23 C          -1.0947    3.8503   55.2175 C.ar    1  UNL        -0.0438
     24 C           0.2456    3.7789   54.8009 C.ar    1  UNL         0.0272
     25 N           0.6026    3.6318   53.5089 N.ar    1  UNL        -0.2590
     26 C           3.0751    1.3925   43.0791 C.3     1  UNL         0.0599
     27 C           3.5945    0.9161   41.6993 C.3     1  UNL        -0.0364
     28 C           3.0689    2.9369   43.1364 C.3     1  UNL        -0.0364
     29 C           3.9220    0.8189   44.2426 C.3     1  UNL        -0.0364
     30 H           0.9471    2.3911   44.6243 H       1  UNL         0.0581
     31 H           1.5110    0.8650   45.3327 H       1  UNL         0.0581
     32 H          -0.3791   -0.2530   43.9327 H       1  UNL         0.0455
     33 H          -1.0163    1.3779   43.6914 H       1  UNL         0.0455
     34 H           0.4952    0.2556   46.9564 H       1  UNL         0.0431
     35 H          -0.2887   -1.1893   46.2953 H       1  UNL         0.0431
     36 H          -0.7798   -0.9289   48.7119 H       1  UNL         0.0288
     37 H          -2.2286   -0.9198   47.7155 H       1  UNL         0.0288
     38 H          -2.5696    0.8154   49.2837 H       1  UNL         0.0402
     39 H          -2.5676    2.9209   47.8613 H       1  UNL         0.0288
     40 H          -3.3681    1.5017   47.1974 H       1  UNL         0.0288
     41 H          -0.6221    2.5787   46.3900 H       1  UNL         0.0431
     42 H          -2.0986    2.5318   45.4199 H       1  UNL         0.0431
     43 H          -1.8443    2.8646   50.4456 H       1  UNL         0.1504
     44 H           1.0208    2.7914   51.1662 H       1  UNL         0.0624
     45 H          -1.4735    5.0453   49.5596 H       1  UNL         0.0626
     46 H          -0.8718    7.2402   48.5780 H       1  UNL         0.0623
     47 H           1.3898    8.2080   48.9672 H       1  UNL         0.0623
     48 H           3.0481    6.9716   50.3543 H       1  UNL         0.0623
     49 H           2.4529    4.7762   51.3467 H       1  UNL         0.0626
     50 H          -2.4998    3.5451   52.1335 H       1  UNL         0.0643
     51 H          -3.1537    3.8177   54.5342 H       1  UNL         0.0624
     52 H          -1.3415    3.9694   56.2684 H       1  UNL         0.0639
     53 H           1.0586    3.8419   55.5233 H       1  UNL         0.0840
     54 H           2.9088    1.2207   40.8982 H       1  UNL         0.0260
     55 H           3.7019   -0.1747   41.6627 H       1  UNL         0.0260
     56 H           4.5792    1.3502   41.4849 H       1  UNL         0.0260
     57 H           2.4445    3.3549   42.3363 H       1  UNL         0.0260
     58 H           4.0830    3.3400   43.0210 H       1  UNL         0.0260
     59 H           2.6704    3.2907   44.0960 H       1  UNL         0.0260
     60 H           4.0071   -0.2729   44.1781 H       1  UNL         0.0260
     61 H           3.4753    1.0723   45.2126 H       1  UNL         0.0260
     62 H           4.9390    1.2303   44.2211 H       1  UNL         0.0260
@<TRIPOS>BOND
     1     1     2    1
     2     1    26    1
     3     2     3    1
     4     2    30    1
     5     2    31    1
     6     3     4    1
     7     3    32    1
     8     3    33    1
     9     4     5    1
    10     4     9    1
    11     5     6    1
    12     5    34    1
    13     5    35    1
    14     6     7    1
    15     6    36    1
    16     6    37    1
    17     7     8    1
    18     7    10    1
    19     7    38    1
    20     8     9    1
    21     8    39    1
    22     8    40    1
    23     9    41    1
    24     9    42    1
    25    10    11    2
    26    10    12   am
    27    12    13    1
    28    12    43    1
    29    13    14    1
    30    13    20    1
    31    13    44    1
    32    14    15   ar
    33    14    19   ar
    34    15    16   ar
    35    15    45    1
    36    16    17   ar
    37    16    46    1
    38    17    18   ar
    39    17    47    1
    40    18    19   ar
    41    18    48    1
    42    19    49    1
    43    20    21   ar
    44    20    25   ar
    45    21    22   ar
    46    21    50    1
    47    22    23   ar
    48    22    51    1
    49    23    24   ar
    50    23    52    1
    51    24    25   ar
    52    24    53    1
    53    26    27    1
    54    26    28    1
    55    26    29    1
    56    27    54    1
    57    27    55    1
    58    27    56    1
    59    28    57    1
    60    28    58    1
    61    28    59    1
    62    29    60    1
    63    29    61    1
    64    29    62    1
@<TRIPOS>SUBSTRUCTURE
     1 UNL         1 TEMP              0 ****  ****    0 ROOT


##########                                Name:    ZINC000751548479
##########                DOCK_Rotatable_Bonds:                   9
##########                         Heavy_Atoms:                  27
##########                    Molecular_Weight:             389.407
##########                DOCK_Rotatable_Bonds:                   9
##########                       Formal_Charge:           0.0199995
##########                     HBond_Acceptors:                   9
##########                        HBond_Donors:                   2
##########                         Heavy_Atoms:                  27
##########                          Grid_Score:          -30.106968
##########                     Grid_vdw_energy:          -28.806824
##########                      Grid_es_energy:           -1.300144
##########           Internal_energy_repulsive:           14.479286

@<TRIPOS>MOLECULE
ZINC000751548479
 43 44 1 0 0
SMALL
USER_CHARGES


@<TRIPOS>ATOM
      1 C1          2.9597    0.3474   40.9438 C.3     1  ZINC000751548479   -0.1600
      2 C2          2.3398    0.7849   42.2725 C.3     1  ZINC000751548479    0.0800
      3 O3          1.0433    0.1516   42.4335 O.3     1  ZINC000751548479   -0.3600
      4 C4          0.3854    0.3895   43.5841 C.2     1  ZINC000751548479    0.6500
      5 O5         -0.6244   -0.2334   43.8465 O.2     1  ZINC000751548479   -0.5400
      6 N6          0.8468    1.3186   44.4444 N.am    1  ZINC000751548479   -0.6500
      7 C7          0.1646    1.5655   45.6376 C.ar    1  ZINC000751548479    0.2000
      8 C8         -1.1366    2.0457   45.6081 C.ar    1  ZINC000751548479   -0.1000
      9 C9         -1.8125    2.2902   46.7867 C.ar    1  ZINC000751548479   -0.1000
     10 C10        -1.1958    2.0577   48.0114 C.ar    1  ZINC000751548479    0.1300
     11 N11        -1.8890    2.3091   49.2007 N.am    1  ZINC000751548479   -1.0500
     12 S12        -1.6791    3.7479   49.9932 S.o2    1  ZINC000751548479    2.6800
     13 O13        -0.3355    3.7592   50.4554 O.2     1  ZINC000751548479   -0.9500
     14 O14        -2.2186    4.7543   49.1475 O.2     1  ZINC000751548479   -0.9400
     15 C15        -2.6990    3.7058   51.4296 C.2     1  ZINC000751548479   -0.7500
     16 C16        -2.1860    3.3405   52.5962 C.2     1  ZINC000751548479    0.0700
     17 C17        -3.0409    3.3068   53.8013 C.ar    1  ZINC000751548479   -0.1100
     18 C18        -2.5074    2.9071   55.0273 C.ar    1  ZINC000751548479   -0.0600
     19 C19        -3.3095    2.8779   56.1490 C.ar    1  ZINC000751548479   -0.1600
     20 C20        -4.6430    3.2441   56.0601 C.ar    1  ZINC000751548479    0.1200
     21 F21        -5.4245    3.2134   57.1616 F       1  ZINC000751548479   -0.1300
     22 C22        -5.1776    3.6423   54.8452 C.ar    1  ZINC000751548479   -0.1600
     23 C23        -4.3830    3.6801   53.7185 C.ar    1  ZINC000751548479   -0.0500
     24 C24         0.1024    1.5777   48.0569 C.ar    1  ZINC000751548479   -0.0600
     25 C25         0.7911    1.3231   46.8691 C.ar    1  ZINC000751548479   -0.0300
     26 C26         2.1335    0.8261   46.9079 C.1     1  ZINC000751548479    0.2500
     27 N27         3.1984    0.4319   46.9389 N.1     1  ZINC000751548479   -0.4000
     28 H28         2.3063    0.6435   40.1232 H       1  ZINC000751548479    0.0700
     29 H29         3.9330    0.8229   40.8230 H       1  ZINC000751548479    0.0900
     30 H30         3.0814   -0.7357   40.9389 H       1  ZINC000751548479    0.0700
     31 H31         2.9934    0.4890   43.0931 H       1  ZINC000751548479    0.0800
     32 H32         2.2182    1.8681   42.2775 H       1  ZINC000751548479    0.0800
     33 H33         1.6529    1.8159   44.2348 H       1  ZINC000751548479    0.4200
     34 H34        -1.6219    2.2290   44.6608 H       1  ZINC000751548479    0.1600
     35 H35        -2.8252    2.6644   46.7576 H       1  ZINC000751548479    0.1700
     36 H36        -2.4924    1.6405   49.5610 H       1  ZINC000751548479    0.4300
     37 H37        -3.7418    3.9774   51.3595 H       1  ZINC000751548479    0.1700
     38 H38        -1.1433    3.0675   52.6660 H       1  ZINC000751548479    0.1500
     39 H39        -1.4685    2.6208   55.0976 H       1  ZINC000751548479    0.1400
     40 H40        -2.8977    2.5686   57.0983 H       1  ZINC000751548479    0.1400
     41 H41        -6.2175    3.9271   54.7813 H       1  ZINC000751548479    0.1400
     42 H42        -4.8005    3.9909   52.7722 H       1  ZINC000751548479    0.1400
     43 H43         0.5799    1.3976   49.0087 H       1  ZINC000751548479    0.1500
@<TRIPOS>BOND
     1     1     2    1
     2     1    28    1
     3     1    29    1
     4     1    30    1
     5     2     3    1
     6     2    31    1
     7     2    32    1
     8     3     4    1
     9     4     5    2
    10     4     6   am
    11     6     7    1
    12     6    33    1
    13     7    25   ar
    14     7     8   ar
    15     8     9   ar
    16     8    34    1
    17     9    10   ar
    18     9    35    1
    19    10    11    1
    20    10    24   ar
    21    11    12   am
    22    11    36    1
    23    12    13    2
    24    12    14    2
    25    12    15    1
    26    15    16    2
    27    15    37    1
    28    16    17    1
    29    16    38    1
    30    17    23   ar
    31    17    18   ar
    32    18    19   ar
    33    18    39    1
    34    19    20   ar
    35    19    40    1
    36    20    21    1
    37    20    22   ar
    38    22    23   ar
    39    22    41    1
    40    23    42    1
    41    24    25   ar
    42    24    43    1
    43    25    26    1
    44    26    27    3
@<TRIPOS>SUBSTRUCTURE
     1 ZINC000751548479        1 TEMP              0 ****  ****    0 ROOT


##########                                Name:    ZINC001342629575
##########                DOCK_Rotatable_Bonds:                   9
##########                         Heavy_Atoms:                  29
##########                    Molecular_Weight:             396.533
##########                DOCK_Rotatable_Bonds:                   9
##########                       Formal_Charge:         -0.00999976
##########                     HBond_Acceptors:                   6
##########                        HBond_Donors:                   0
##########                         Heavy_Atoms:                  29
##########                          Grid_Score:          -30.106834
##########                     Grid_vdw_energy:          -28.864372
##########                      Grid_es_energy:           -1.242462
##########           Internal_energy_repulsive:           19.830736

@<TRIPOS>MOLECULE
ZINC001342629575
 61 64 1 0 0
SMALL
USER_CHARGES


@<TRIPOS>ATOM
      1 C1          0.9929    6.5582   50.1155 C.2     1  ZINC001342629575   -0.1800
      2 C2          0.8699    6.5548   51.4196 C.2     1  ZINC001342629575   -0.1600
      3 C3          1.4062    5.3989   52.2241 C.3     1  ZINC001342629575   -0.0800
      4 C4          0.3179    4.3340   52.3749 C.3     1  ZINC001342629575    0.0500
      5 H5         -0.6566    4.8176   52.4432 H       1  ZINC001342629575    0.0900
      6 C6          0.3416    3.4186   51.1781 C.2     1  ZINC001342629575    0.2000
      7 N7          1.4027    2.9373   50.5949 N.2     1  ZINC001342629575   -0.2700
      8 N8          1.0617    2.1920   49.6048 N.2     1  ZINC001342629575   -0.3000
      9 C9         -0.2460    2.1576   49.5023 C.2     1  ZINC001342629575    0.3400
     10 N10        -0.9801    1.4596   48.5567 N.3     1  ZINC001342629575   -0.4300
     11 C11        -0.8228   -0.0066   48.7368 C.3     1  ZINC001342629575    0.0400
     12 C12        -1.2096   -0.6101   47.3695 C.3     1  ZINC001342629575   -0.1200
     13 C13        -0.9744    0.5234   46.3500 C.3     1  ZINC001342629575   -0.1200
     14 C14        -0.4652    1.7165   47.1870 C.3     1  ZINC001342629575    0.0700
     15 H15         0.6245    1.7419   47.1892 H       1  ZINC001342629575    0.0900
     16 C16        -1.0275    3.0303   46.6406 C.3     1  ZINC001342629575    0.1000
     17 H17        -2.0936    3.0949   46.8581 H       1  ZINC001342629575    0.0700
     18 C18        -0.7986    3.1040   45.1157 C.3     1  ZINC001342629575   -0.1400
     19 C19        -0.4263    4.5976   44.9100 C.3     1  ZINC001342629575   -0.1600
     20 C20         0.3430    4.8924   46.2224 C.3     1  ZINC001342629575    0.0500
     21 O21        -0.3420    4.1376   47.2371 O.3     1  ZINC001342629575   -0.3700
     22 N22        -0.7466    2.9342   50.5064 N.pl3   1  ZINC001342629575   -0.4600
     23 C23        -2.1570    3.2018   50.7983 C.3     1  ZINC001342629575    0.1100
     24 C24        -2.6662    4.3133   49.8784 C.3     1  ZINC001342629575    0.0500
     25 O25        -1.8777    5.4894   50.0708 O.3     1  ZINC001342629575   -0.3800
     26 C26        -2.2718    6.5935   49.2536 C.3     1  ZINC001342629575    0.0300
     27 C27         0.5695    3.5321   53.6257 C.ar    1  ZINC001342629575   -0.0900
     28 C28         1.8212    2.9951   53.8624 C.ar    1  ZINC001342629575   -0.0900
     29 C29         2.0520    2.2596   55.0098 C.ar    1  ZINC001342629575   -0.1200
     30 C30         1.0314    2.0614   55.9208 C.ar    1  ZINC001342629575   -0.1200
     31 C31        -0.2200    2.5991   55.6846 C.ar    1  ZINC001342629575   -0.1200
     32 C32        -0.4496    3.3383   54.5392 C.ar    1  ZINC001342629575   -0.1100
     33 H33         0.6085    7.3865   49.5389 H       1  ZINC001342629575    0.1000
     34 H34         1.4827    5.7347   49.6171 H       1  ZINC001342629575    0.1000
     35 H35         0.3840    7.3804   51.9184 H       1  ZINC001342629575    0.1000
     36 H36         2.2671    4.9686   51.7126 H       1  ZINC001342629575    0.0900
     37 H37         1.7084    5.7517   53.2101 H       1  ZINC001342629575    0.0800
     38 H38         0.2109   -0.2509   48.9813 H       1  ZINC001342629575    0.0600
     39 H39        -1.4943   -0.3682   49.5155 H       1  ZINC001342629575    0.0800
     40 H40        -0.5732   -1.4645   47.1391 H       1  ZINC001342629575    0.0800
     41 H41        -2.2582   -0.9073   47.3697 H       1  ZINC001342629575    0.0800
     42 H42        -0.2225    0.2254   45.6192 H       1  ZINC001342629575    0.0800
     43 H43        -1.9075    0.7825   45.8499 H       1  ZINC001342629575    0.0800
     44 H44         0.0234    2.4544   44.8149 H       1  ZINC001342629575    0.0900
     45 H45        -1.7107    2.8534   44.5739 H       1  ZINC001342629575    0.0800
     46 H46         0.2176    4.7260   44.0399 H       1  ZINC001342629575    0.0800
     47 H47        -1.3193    5.2178   44.8304 H       1  ZINC001342629575    0.0800
     48 H48         1.3778    4.5606   46.1369 H       1  ZINC001342629575    0.0600
     49 H49         0.3040    5.9570   46.4529 H       1  ZINC001342629575    0.0900
     50 H50        -2.7407    2.2964   50.6317 H       1  ZINC001342629575    0.1000
     51 H51        -2.2601    3.5144   51.8374 H       1  ZINC001342629575    0.1100
     52 H52        -2.5889    3.9898   48.8404 H       1  ZINC001342629575    0.0600
     53 H53        -3.7078    4.5316   50.1144 H       1  ZINC001342629575    0.0600
     54 H54        -1.6251    7.4466   49.4589 H       1  ZINC001342629575    0.0900
     55 H55        -2.1857    6.3168   48.2028 H       1  ZINC001342629575    0.0400
     56 H56        -3.3053    6.8593   49.4757 H       1  ZINC001342629575    0.0400
     57 H57         2.6186    3.1500   53.1507 H       1  ZINC001342629575    0.1300
     58 H58         3.0297    1.8396   55.1944 H       1  ZINC001342629575    0.1200
     59 H59         1.2114    1.4861   56.8169 H       1  ZINC001342629575    0.1200
     60 H60        -1.0175    2.4440   56.3961 H       1  ZINC001342629575    0.1200
     61 H61        -1.4273    3.7585   54.3547 H       1  ZINC001342629575    0.1200
@<TRIPOS>BOND
     1     1     2    2
     2     1    33    1
     3     1    34    1
     4     2     3    1
     5     2    35    1
     6     3     4    1
     7     3    36    1
     8     3    37    1
     9     4     5    1
    10     4     6    1
    11     4    27    1
    12     6    22    1
    13     6     7    2
    14     7     8    1
    15     8     9    2
    16     9    10    1
    17     9    22    1
    18    10    14    1
    19    10    11    1
    20    11    12    1
    21    11    38    1
    22    11    39    1
    23    12    13    1
    24    12    40    1
    25    12    41    1
    26    13    14    1
    27    13    42    1
    28    13    43    1
    29    14    15    1
    30    14    16    1
    31    16    17    1
    32    16    21    1
    33    16    18    1
    34    18    19    1
    35    18    44    1
    36    18    45    1
    37    19    20    1
    38    19    46    1
    39    19    47    1
    40    20    21    1
    41    20    48    1
    42    20    49    1
    43    22    23    1
    44    23    24    1
    45    23    50    1
    46    23    51    1
    47    24    25    1
    48    24    52    1
    49    24    53    1
    50    25    26    1
    51    26    54    1
    52    26    55    1
    53    26    56    1
    54    27    32   ar
    55    27    28   ar
    56    28    29   ar
    57    28    57    1
    58    29    30   ar
    59    29    58    1
    60    30    31   ar
    61    30    59    1
    62    31    32   ar
    63    31    60    1
    64    32    61    1
@<TRIPOS>SUBSTRUCTURE
     1 ZINC001342629575        1 TEMP              0 ****  ****    0 ROOT


##########                                Name:    ZINC000550952205
##########                DOCK_Rotatable_Bonds:                   7
##########                         Heavy_Atoms:                  28
##########                    Molecular_Weight:             407.484
##########                DOCK_Rotatable_Bonds:                   7
##########                       Formal_Charge:        -2.68221e-07
##########                     HBond_Acceptors:                   8
##########                        HBond_Donors:                   2
##########                         Heavy_Atoms:                  28
##########                          Grid_Score:          -30.103138
##########                     Grid_vdw_energy:          -26.659098
##########                      Grid_es_energy:           -3.444039
##########           Internal_energy_repulsive:            5.620643

@<TRIPOS>MOLECULE
ZINC000550952205
 51 54 1 0 0
SMALL
USER_CHARGES


@<TRIPOS>ATOM
      1 O1         -6.5046   -0.2059   67.7635 O.2     1  ZINC000550952205   -0.5100
      2 C2         -6.6163    0.2154   66.6309 C.2     1  ZINC000550952205    0.5100
      3 N3         -5.7834    1.1763   66.1841 N.am    1  ZINC000550952205   -0.7000
      4 C4         -4.7470    1.7162   67.0677 C.3     1  ZINC000550952205    0.1200
      5 C5         -3.5101    2.0764   66.2423 C.3     1  ZINC000550952205   -0.0900
      6 H6         -2.7398    2.4852   66.8963 H       1  ZINC000550952205    0.1000
      7 C7         -2.9867    0.8458   65.5526 C.3     1  ZINC000550952205   -0.1300
      8 C8         -1.4514    0.8500   65.4242 C.3     1  ZINC000550952205   -0.1200
      9 C9         -0.8886    2.2286   65.0292 C.3     1  ZINC000550952205   -0.1300
     10 C10        -1.7147    2.9057   63.9695 C.3     1  ZINC000550952205   -0.1500
     11 C11        -2.7308    3.8375   64.6611 C.3     1  ZINC000550952205    0.3000
     12 F12        -2.0981    4.4855   65.7274 F       1  ZINC000550952205   -0.2000
     13 F13        -3.1644    4.7978   63.7409 F       1  ZINC000550952205   -0.2000
     14 C14        -3.8879    3.1201   65.1714 C.3     1  ZINC000550952205   -0.1700
     15 C15        -7.6727   -0.3348   65.7303 C.2     1  ZINC000550952205    0.5100
     16 O16        -8.3548   -1.2701   66.0956 O.2     1  ZINC000550952205   -0.4900
     17 N17        -7.8688    0.2071   64.5120 N.am    1  ZINC000550952205   -0.6400
     18 C18        -8.8578   -0.3080   63.6689 C.ar    1  ZINC000550952205    0.1500
     19 C19        -8.5142   -1.1974   62.6520 C.ar    1  ZINC000550952205   -0.1200
     20 C20        -9.4663   -1.7070   61.8238 C.ar    1  ZINC000550952205   -0.0400
     21 C21       -10.8197   -1.3441   61.9792 C.ar    1  ZINC000550952205    0.0800
     22 N22       -11.8992   -1.7317   61.2728 N.2     1  ZINC000550952205   -0.4700
     23 C23       -13.0374   -1.2569   61.6118 C.2     1  ZINC000550952205    0.1200
     24 C24       -14.3352   -1.5927   60.9233 C.3     1  ZINC000550952205   -0.1100
     25 C25       -14.5459   -1.0488   59.5088 C.3     1  ZINC000550952205   -0.1500
     26 C26       -14.2737   -2.5391   59.7228 C.3     1  ZINC000550952205   -0.1500
     27 S27       -12.9029   -0.1963   62.9418 S.3     1  ZINC000550952205    0.1200
     28 C28       -11.1616   -0.4512   63.0018 C.ar    1  ZINC000550952205   -0.1700
     29 C29       -10.1799    0.0597   63.8464 C.ar    1  ZINC000550952205   -0.0700
     30 H30        -5.8702    1.5104   65.2776 H       1  ZINC000550952205    0.4200
     31 H31        -5.1237    2.6092   67.5664 H       1  ZINC000550952205    0.0800
     32 H32        -4.4803    0.9682   67.8143 H       1  ZINC000550952205    0.0800
     33 H33        -3.2907   -0.0333   66.1209 H       1  ZINC000550952205    0.0700
     34 H34        -3.4237    0.7873   64.5558 H       1  ZINC000550952205    0.0700
     35 H35        -1.0179    0.5539   66.3796 H       1  ZINC000550952205    0.0700
     36 H36        -1.1598    0.1214   64.6677 H       1  ZINC000550952205    0.0700
     37 H37        -0.8601    2.8646   65.9139 H       1  ZINC000550952205    0.0800
     38 H38         0.1277    2.1010   64.6562 H       1  ZINC000550952205    0.0700
     39 H39        -1.0661    3.4908   63.3176 H       1  ZINC000550952205    0.0900
     40 H40        -2.2458    2.1551   63.3841 H       1  ZINC000550952205    0.1000
     41 H41        -4.3785    2.6075   64.3439 H       1  ZINC000550952205    0.1000
     42 H42        -4.5858    3.8376   65.6032 H       1  ZINC000550952205    0.1000
     43 H43        -7.3239    0.9546   64.2202 H       1  ZINC000550952205    0.4300
     44 H44        -7.4816   -1.4848   62.5197 H       1  ZINC000550952205    0.1400
     45 H45        -9.1826   -2.3946   61.0408 H       1  ZINC000550952205    0.1400
     46 H46       -15.2082   -1.6593   61.5725 H       1  ZINC000550952205    0.1300
     47 H47       -15.5577   -0.7573   59.2272 H       1  ZINC000550952205    0.1000
     48 H48       -13.7458   -0.4481   59.0763 H       1  ZINC000550952205    0.1100
     49 H49       -13.2946   -2.9189   59.4309 H       1  ZINC000550952205    0.1000
     50 H50       -15.1065   -3.2282   59.5818 H       1  ZINC000550952205    0.1100
     51 H51       -10.4496    0.7440   64.6372 H       1  ZINC000550952205    0.1400
@<TRIPOS>BOND
     1     1     2    2
     2     2     3   am
     3     2    15    1
     4     3     4    1
     5     3    30    1
     6     4     5    1
     7     4    31    1
     8     4    32    1
     9     5     6    1
    10     5    14    1
    11     5     7    1
    12     7     8    1
    13     7    33    1
    14     7    34    1
    15     8     9    1
    16     8    35    1
    17     8    36    1
    18     9    10    1
    19     9    37    1
    20     9    38    1
    21    10    11    1
    22    10    39    1
    23    10    40    1
    24    11    12    1
    25    11    13    1
    26    11    14    1
    27    14    41    1
    28    14    42    1
    29    15    16    2
    30    15    17   am
    31    17    18    1
    32    17    43    1
    33    18    29   ar
    34    18    19   ar
    35    19    20   ar
    36    19    44    1
    37    20    21   ar
    38    20    45    1
    39    21    28   ar
    40    21    22    1
    41    22    23    2
    42    23    24    1
    43    23    27    1
    44    24    26    1
    45    24    25    1
    46    24    46    1
    47    25    26    1
    48    25    47    1
    49    25    48    1
    50    26    49    1
    51    26    50    1
    52    27    28    1
    53    28    29   ar
    54    29    51    1
@<TRIPOS>SUBSTRUCTURE
     1 ZINC000550952205        1 TEMP              0 ****  ****    0 ROOT


##########                                Name:    ZINC001300804061
##########                DOCK_Rotatable_Bonds:                   5
##########                         Heavy_Atoms:                  27
##########                    Molecular_Weight:              390.55
##########                DOCK_Rotatable_Bonds:                   5
##########                       Formal_Charge:                0.01
##########                     HBond_Acceptors:                   7
##########                        HBond_Donors:                   0
##########                         Heavy_Atoms:                  27
##########                          Grid_Score:          -30.089806
##########                     Grid_vdw_energy:          -29.583992
##########                      Grid_es_energy:           -0.505813
##########           Internal_energy_repulsive:           11.110614

@<TRIPOS>MOLECULE
ZINC001300804061
 57 60 1 0 0
SMALL
USER_CHARGES


@<TRIPOS>ATOM
      1 C1        -10.7386    0.4006   64.2265 C.3     1  ZINC001300804061    0.0300
      2 O2         -9.6583   -0.4246   63.7859 O.3     1  ZINC001300804061   -0.3800
      3 C3         -9.4007   -0.3446   62.3826 C.3     1  ZINC001300804061    0.1000
      4 H4         -9.7401    0.6198   62.0047 H       1  ZINC001300804061    0.0700
      5 C5        -10.1485   -1.4679   61.6611 C.3     1  ZINC001300804061    0.0500
      6 N6         -9.8673   -1.3991   60.2214 N.3     1  ZINC001300804061   -0.4600
      7 C7        -10.6298   -2.3192   59.5223 C.2     1  ZINC001300804061    0.3600
      8 N8        -10.5314   -3.6268   59.5942 N.2     1  ZINC001300804061   -0.3000
      9 N9        -11.3900   -4.1792   58.8138 N.2     1  ZINC001300804061   -0.2500
     10 C10       -12.0914   -3.2554   58.1941 C.2     1  ZINC001300804061    0.2600
     11 C11       -13.1703   -3.4823   57.2197 C.2     1  ZINC001300804061    0.0400
     12 C12       -13.5541   -4.6895   56.7176 C.2     1  ZINC001300804061   -0.1300
     13 C13       -14.6144   -4.4387   55.8253 C.2     1  ZINC001300804061   -0.2100
     14 C14       -14.8248   -3.1073   55.8251 C.2     1  ZINC001300804061    0.0100
     15 C15       -15.8679   -2.3835   55.0132 C.3     1  ZINC001300804061   -0.0800
     16 O16       -13.9551   -2.5331   56.6725 O.3     1  ZINC001300804061   -0.1700
     17 N17       -11.6282   -2.0353   58.6343 N.pl3   1  ZINC001300804061   -0.4600
     18 C18       -12.1017   -0.7097   58.2285 C.3     1  ZINC001300804061    0.1200
     19 C19       -11.0896   -0.0776   57.2709 C.3     1  ZINC001300804061   -0.1000
     20 H20       -10.1097   -0.0489   57.7474 H       1  ZINC001300804061    0.0900
     21 C21       -11.5307    1.3435   56.9334 C.3     1  ZINC001300804061   -0.1200
     22 C22       -10.4215    2.0937   56.2019 C.3     1  ZINC001300804061   -0.1200
     23 C23       -10.2538    1.5304   54.7883 C.3     1  ZINC001300804061   -0.0800
     24 S24        -9.7338   -0.2071   54.9068 S.3     1  ZINC001300804061   -0.2600
     25 C25       -11.0085   -0.9151   55.9919 C.3     1  ZINC001300804061   -0.0700
     26 C26        -8.4364   -1.5871   59.9504 C.3     1  ZINC001300804061    0.0600
     27 C27        -7.6374   -0.4673   60.6209 C.3     1  ZINC001300804061   -0.1100
     28 C28        -7.8979   -0.4928   62.1295 C.3     1  ZINC001300804061   -0.0900
     29 H29        -7.5513   -1.4399   62.5431 H       1  ZINC001300804061    0.0800
     30 C30        -7.1480    0.6615   62.7975 C.3     1  ZINC001300804061   -0.1400
     31 H31       -10.5155    1.4432   63.9994 H       1  ZINC001300804061    0.0400
     32 H32       -11.6540    0.1050   63.7141 H       1  ZINC001300804061    0.0400
     33 H33       -10.8701    0.2833   65.3022 H       1  ZINC001300804061    0.0900
     34 H34        -9.8193   -2.4317   62.0496 H       1  ZINC001300804061    0.0700
     35 H35       -11.2200   -1.3564   61.8275 H       1  ZINC001300804061    0.0800
     36 H36       -13.1274   -5.6523   56.9572 H       1  ZINC001300804061    0.1600
     37 H37       -15.1565   -5.1744   55.2498 H       1  ZINC001300804061    0.1600
     38 H38       -16.7921   -2.3152   55.5871 H       1  ZINC001300804061    0.0900
     39 H39       -15.5124   -1.3806   54.7762 H       1  ZINC001300804061    0.0800
     40 H40       -16.0536   -2.9309   54.0891 H       1  ZINC001300804061    0.0900
     41 H41       -13.0650   -0.8056   57.7276 H       1  ZINC001300804061    0.1100
     42 H42       -12.2117   -0.0777   59.1099 H       1  ZINC001300804061    0.1000
     43 H43       -12.4159    1.3034   56.2987 H       1  ZINC001300804061    0.0700
     44 H44       -11.7743    1.8722   57.8549 H       1  ZINC001300804061    0.0800
     45 H45       -10.6785    3.1513   56.1419 H       1  ZINC001300804061    0.0800
     46 H46        -9.4860    1.9809   56.7498 H       1  ZINC001300804061    0.0800
     47 H47       -11.2028    1.5921   54.2557 H       1  ZINC001300804061    0.0800
     48 H48        -9.4953    2.1030   54.2545 H       1  ZINC001300804061    0.1100
     49 H49       -10.7430   -1.9413   56.2458 H       1  ZINC001300804061    0.1000
     50 H50       -11.9716   -0.9005   55.4817 H       1  ZINC001300804061    0.0900
     51 H51        -8.1151   -2.5502   60.3470 H       1  ZINC001300804061    0.0600
     52 H52        -8.2642   -1.5619   58.8742 H       1  ZINC001300804061    0.0800
     53 H53        -6.5741   -0.6158   60.4325 H       1  ZINC001300804061    0.0800
     54 H54        -7.9484    0.4952   60.2147 H       1  ZINC001300804061    0.0800
     55 H55        -7.4967    1.6083   62.3850 H       1  ZINC001300804061    0.0500
     56 H56        -7.3339    0.6426   63.8713 H       1  ZINC001300804061    0.0600
     57 H57        -6.0791    0.5561   62.6120 H       1  ZINC001300804061    0.0600
@<TRIPOS>BOND
     1     1     2    1
     2     1    31    1
     3     1    32    1
     4     1    33    1
     5     2     3    1
     6     3     4    1
     7     3    28    1
     8     3     5    1
     9     5     6    1
    10     5    34    1
    11     5    35    1
    12     6     7    1
    13     6    26    1
    14     7    17    1
    15     7     8    2
    16     8     9    1
    17     9    10    2
    18    10    11    1
    19    10    17    1
    20    11    16    1
    21    11    12    2
    22    12    13    1
    23    12    36    1
    24    13    14    2
    25    13    37    1
    26    14    15    1
    27    14    16    1
    28    15    38    1
    29    15    39    1
    30    15    40    1
    31    17    18    1
    32    18    19    1
    33    18    41    1
    34    18    42    1
    35    19    20    1
    36    19    25    1
    37    19    21    1
    38    21    22    1
    39    21    43    1
    40    21    44    1
    41    22    23    1
    42    22    45    1
    43    22    46    1
    44    23    24    1
    45    23    47    1
    46    23    48    1
    47    24    25    1
    48    25    49    1
    49    25    50    1
    50    26    27    1
    51    26    51    1
    52    26    52    1
    53    27    28    1
    54    27    53    1
    55    27    54    1
    56    28    29    1
    57    28    30    1
    58    30    55    1
    59    30    56    1
    60    30    57    1
@<TRIPOS>SUBSTRUCTURE
     1 ZINC001300804061        1 TEMP              0 ****  ****    0 ROOT


##########                                Name:    ZINC000441887161
##########                DOCK_Rotatable_Bonds:                   6
##########                         Heavy_Atoms:                  27
##########                    Molecular_Weight:             383.514
##########                DOCK_Rotatable_Bonds:                   6
##########                       Formal_Charge:          -0.0300002
##########                     HBond_Acceptors:                   6
##########                        HBond_Donors:                   1
##########                         Heavy_Atoms:                  27
##########                          Grid_Score:          -30.082472
##########                     Grid_vdw_energy:          -30.288748
##########                      Grid_es_energy:            0.206276
##########           Internal_energy_repulsive:           18.700766

@<TRIPOS>MOLECULE
ZINC000441887161
 52 54 1 0 0
SMALL
USER_CHARGES


@<TRIPOS>ATOM
      1 C1          3.3124    0.3303   41.2572 C.3     1  ZINC000441887161   -0.1200
      2 C2          2.4389    0.7147   42.4235 C.ar    1  ZINC000441887161   -0.0700
      3 C3          1.0934    0.3990   42.4127 C.ar    1  ZINC000441887161   -0.1200
      4 C4          0.2920    0.7517   43.4828 C.ar    1  ZINC000441887161   -0.0900
      5 C5          0.8365    1.4194   44.5634 C.ar    1  ZINC000441887161   -0.1100
      6 C6         -0.0370    1.8042   45.7296 C.3     1  ZINC000441887161    0.1900
      7 H7          0.5898    2.0953   46.5726 H       1  ZINC000441887161    0.1000
      8 C8         -0.9323    2.9788   45.3303 C.3     1  ZINC000441887161    0.1000
      9 N9         -0.1281    4.2009   45.2504 N.pl3   1  ZINC000441887161   -0.4600
     10 C10         0.7358    4.5403   44.2444 C.2     1  ZINC000441887161   -0.0500
     11 C11         1.2604    5.7375   44.5687 C.2     1  ZINC000441887161   -0.0200
     12 N12         0.7312    6.1186   45.7408 N.2     1  ZINC000441887161   -0.4900
     13 C13        -0.1052    5.2054   46.1526 C.2     1  ZINC000441887161    0.1800
     14 N14        -0.8711    0.6624   46.1125 N.am    1  ZINC000441887161   -1.1100
     15 S15        -0.6835   -0.0377   47.6015 S.o2    1  ZINC000441887161    2.6900
     16 O16        -1.7218   -0.9998   47.7261 O.2     1  ZINC000441887161   -0.9600
     17 O17         0.6949   -0.3616   47.7216 O.2     1  ZINC000441887161   -0.9500
     18 C18        -1.0094    1.2052   48.8070 C.ar    1  ZINC000441887161   -0.6800
     19 C19        -2.3067    1.6249   49.0337 C.ar    1  ZINC000441887161   -0.0300
     20 C20        -2.5624    2.6002   49.9796 C.ar    1  ZINC000441887161   -0.1300
     21 C21        -1.5209    3.1552   50.6991 C.ar    1  ZINC000441887161   -0.0200
     22 C22        -1.7996    4.2186   51.7298 C.3     1  ZINC000441887161   -0.1300
     23 C23        -0.2234    2.7344   50.4733 C.ar    1  ZINC000441887161   -0.1000
     24 C24         0.9122    3.3392   51.2580 C.3     1  ZINC000441887161   -0.1200
     25 C25         0.0318    1.7567   49.5304 C.ar    1  ZINC000441887161   -0.0100
     26 C26         2.1828    1.7339   44.5748 C.ar    1  ZINC000441887161   -0.0700
     27 C27         2.7767    2.4616   45.7533 C.3     1  ZINC000441887161   -0.1300
     28 C28         2.9847    1.3780   43.5068 C.ar    1  ZINC000441887161   -0.1200
     29 H29         3.7265   -0.6639   41.4254 H       1  ZINC000441887161    0.0700
     30 H30         2.7177    0.3263   40.3437 H       1  ZINC000441887161    0.0700
     31 H31         4.1247    1.0504   41.1588 H       1  ZINC000441887161    0.0700
     32 H32         0.6678   -0.1228   41.5683 H       1  ZINC000441887161    0.1200
     33 H33        -0.7596    0.5056   43.4740 H       1  ZINC000441887161    0.1200
     34 H34        -1.3845    2.7774   44.3592 H       1  ZINC000441887161    0.1100
     35 H35        -1.7164    3.1081   46.0764 H       1  ZINC000441887161    0.1000
     36 H36         0.9549    3.9595   43.3606 H       1  ZINC000441887161    0.1700
     37 H37         1.9808    6.2932   43.9870 H       1  ZINC000441887161    0.1600
     38 H38        -0.6789    5.2436   47.0668 H       1  ZINC000441887161    0.2000
     39 H39        -1.5334    0.3165   45.4939 H       1  ZINC000441887161    0.4200
     40 H40        -3.1205    1.1912   48.4716 H       1  ZINC000441887161    0.1300
     41 H41        -3.5760    2.9286   50.1562 H       1  ZINC000441887161    0.1300
     42 H42        -1.9767    3.7492   52.6974 H       1  ZINC000441887161    0.0800
     43 H43        -0.9424    4.8881   51.8021 H       1  ZINC000441887161    0.0800
     44 H44        -2.6813    4.7879   51.4353 H       1  ZINC000441887161    0.0700
     45 H45         1.0756    2.7591   52.1663 H       1  ZINC000441887161    0.0800
     46 H46         1.8183    3.3290   50.6524 H       1  ZINC000441887161    0.0700
     47 H47         0.6638    4.3669   51.5230 H       1  ZINC000441887161    0.0700
     48 H48         1.0454    1.4280   49.3541 H       1  ZINC000441887161    0.1400
     49 H49         3.1263    1.7372   46.4890 H       1  ZINC000441887161    0.0800
     50 H50         3.6149    3.0726   45.4184 H       1  ZINC000441887161    0.0700
     51 H51         2.0185    3.1012   46.2050 H       1  ZINC000441887161    0.0600
     52 H52         4.0364    1.6237   43.5157 H       1  ZINC000441887161    0.1300
@<TRIPOS>BOND
     1     1     2    1
     2     1    29    1
     3     1    30    1
     4     1    31    1
     5     2    28   ar
     6     2     3   ar
     7     3     4   ar
     8     3    32    1
     9     4     5   ar
    10     4    33    1
    11     5     6    1
    12     5    26   ar
    13     6     7    1
    14     6     8    1
    15     6    14    1
    16     8     9    1
    17     8    34    1
    18     8    35    1
    19     9    13    1
    20     9    10    1
    21    10    11    2
    22    10    36    1
    23    11    12    1
    24    11    37    1
    25    12    13    2
    26    13    38    1
    27    14    15   am
    28    14    39    1
    29    15    16    2
    30    15    17    2
    31    15    18    1
    32    18    25   ar
    33    18    19   ar
    34    19    20   ar
    35    19    40    1
    36    20    21   ar
    37    20    41    1
    38    21    22    1
    39    21    23   ar
    40    22    42    1
    41    22    43    1
    42    22    44    1
    43    23    24    1
    44    23    25   ar
    45    24    45    1
    46    24    46    1
    47    24    47    1
    48    25    48    1
    49    26    27    1
    50    26    28   ar
    51    27    49    1
    52    27    50    1
    53    27    51    1
    54    28    52    1
@<TRIPOS>SUBSTRUCTURE
     1 ZINC000441887161        1 TEMP              0 ****  ****    0 ROOT


##########                                Name:    ZINC001013196242
##########                DOCK_Rotatable_Bonds:                   5
##########                         Heavy_Atoms:                  24
##########                    Molecular_Weight:              349.86
##########                DOCK_Rotatable_Bonds:                   5
##########                       Formal_Charge:        -3.05474e-07
##########                     HBond_Acceptors:                   6
##########                        HBond_Donors:                   1
##########                         Heavy_Atoms:                  24
##########                          Grid_Score:          -30.063787
##########                     Grid_vdw_energy:          -28.516722
##########                      Grid_es_energy:           -1.547066
##########           Internal_energy_repulsive:           12.233022

@<TRIPOS>MOLECULE
ZINC001013196242
 48 51 1 0 0
SMALL
USER_CHARGES


@<TRIPOS>ATOM
      1 C1         -0.0318    5.7630   49.8276 C.3     1  ZINC001013196242   -0.1600
      2 C2         -1.4155    5.1164   49.7365 C.3     1  ZINC001013196242    0.1400
      3 H3         -2.0153    5.6292   48.9846 H       1  ZINC001013196242    0.0800
      4 C4         -2.1196    5.1879   51.1079 C.3     1  ZINC001013196242   -0.1400
      5 C5         -2.8501    3.8219   51.1951 C.3     1  ZINC001013196242    0.1300
      6 H6         -3.7994    3.8516   50.6602 H       1  ZINC001013196242    0.1100
      7 N7         -3.0488    3.4207   52.5900 N.am    1  ZINC001013196242   -0.7200
      8 C8         -4.1557    3.8113   53.2523 C.2     1  ZINC001013196242    0.5400
      9 O9         -4.9880    4.4934   52.6930 O.2     1  ZINC001013196242   -0.5200
     10 C10        -4.3592    3.4002   54.6878 C.3     1  ZINC001013196242   -0.1400
     11 C11        -3.3059    2.4006   55.1973 C.3     1  ZINC001013196242   -0.0800
     12 C12        -2.4759    3.6181   55.6185 C.3     1  ZINC001013196242   -0.1600
     13 C13        -1.2729    3.6713   56.5536 C.3     1  ZINC001013196242   -0.1700
     14 C14        -1.1237    4.0778   55.0849 C.3     1  ZINC001013196242   -0.1400
     15 C15        -3.7879    4.4055   55.7031 C.3     1  ZINC001013196242   -0.0800
     16 C16        -1.8420    2.8842   50.4850 C.3     1  ZINC001013196242    0.0800
     17 N17        -1.2811    3.6952   49.3848 N.am    1  ZINC001013196242   -0.6000
     18 C18        -0.7364    3.2113   48.2510 C.2     1  ZINC001013196242    0.6100
     19 O19        -0.3018    3.9761   47.4100 O.2     1  ZINC001013196242   -0.5400
     20 C20        -0.6673    1.7629   48.0306 C.2     1  ZINC001013196242   -0.0400
     21 C21         0.0538    0.8580   48.7806 C.2     1  ZINC001013196242   -0.1400
     22 C22        -0.1660   -0.4060   48.2231 C.2     1  ZINC001013196242   -0.1200
     23 Cl23        0.5085   -1.9031   48.7865 Cl      1  ZINC001013196242   -0.0400
     24 C24        -0.9995   -0.2543   47.1653 C.2     1  ZINC001013196242    0.0400
     25 N25        -1.3154    1.0589   47.0412 N.pl3   1  ZINC001013196242   -0.4000
     26 C26        -2.1936    1.6334   46.0190 C.3     1  ZINC001013196242    0.0700
     27 H27         0.4615    5.7038   48.8574 H       1  ZINC001013196242    0.0700
     28 H28        -0.1376    6.8082   50.1183 H       1  ZINC001013196242    0.0700
     29 H29         0.5665    5.2375   50.5720 H       1  ZINC001013196242    0.0600
     30 H30        -1.3898    5.2869   51.9113 H       1  ZINC001013196242    0.0900
     31 H31        -2.8349    6.0100   51.1316 H       1  ZINC001013196242    0.0900
     32 H32        -2.3837    2.8741   53.0369 H       1  ZINC001013196242    0.4000
     33 H33        -5.3855    3.1008   54.9006 H       1  ZINC001013196242    0.1000
     34 H34        -3.6485    1.7938   56.0355 H       1  ZINC001013196242    0.1000
     35 H35        -2.8450    1.8099   54.4057 H       1  ZINC001013196242    0.0700
     36 H36        -1.2504    4.4650   57.3004 H       1  ZINC001013196242    0.1000
     37 H37        -0.8317    2.7232   56.8610 H       1  ZINC001013196242    0.0900
     38 H38        -0.5845    3.3969   54.4263 H       1  ZINC001013196242    0.0900
     39 H39        -1.0032    5.1388   54.8657 H       1  ZINC001013196242    0.1000
     40 H40        -3.7134    5.4222   55.3172 H       1  ZINC001013196242    0.0800
     41 H41        -4.2647    4.3569   56.6822 H       1  ZINC001013196242    0.0900
     42 H42        -1.0542    2.5820   51.1749 H       1  ZINC001013196242    0.0800
     43 H43        -2.3545    2.0087   50.0860 H       1  ZINC001013196242    0.1000
     44 H44         0.6724    1.0829   49.6369 H       1  ZINC001013196242    0.1600
     45 H45        -1.3568   -1.0494   46.5279 H       1  ZINC001013196242    0.1800
     46 H46        -3.2022    1.7322   46.4204 H       1  ZINC001013196242    0.0800
     47 H47        -1.8200    2.6155   45.7294 H       1  ZINC001013196242    0.1000
     48 H48        -2.2121    0.9800   45.1468 H       1  ZINC001013196242    0.0900
@<TRIPOS>BOND
     1     1     2    1
     2     1    27    1
     3     1    28    1
     4     1    29    1
     5     2     3    1
     6     2    17    1
     7     2     4    1
     8     4     5    1
     9     4    30    1
    10     4    31    1
    11     5     6    1
    12     5     7    1
    13     5    16    1
    14     7     8   am
    15     7    32    1
    16     8     9    2
    17     8    10    1
    18    10    15    1
    19    10    11    1
    20    10    33    1
    21    11    12    1
    22    11    34    1
    23    11    35    1
    24    12    14    1
    25    12    13    1
    26    12    15    1
    27    13    14    1
    28    13    36    1
    29    13    37    1
    30    14    38    1
    31    14    39    1
    32    15    40    1
    33    15    41    1
    34    16    17    1
    35    16    42    1
    36    16    43    1
    37    17    18   am
    38    18    19    2
    39    18    20    1
    40    20    25    1
    41    20    21    2
    42    21    22    1
    43    21    44    1
    44    22    23    1
    45    22    24    2
    46    24    25    1
    47    24    45    1
    48    25    26    1
    49    26    46    1
    50    26    47    1
    51    26    48    1
@<TRIPOS>SUBSTRUCTURE
     1 ZINC001013196242        1 TEMP              0 ****  ****    0 ROOT


##########                                Name:    ZINC000011157684
##########                DOCK_Rotatable_Bonds:                   7
##########                         Heavy_Atoms:                  25
##########                    Molecular_Weight:             374.866
##########                DOCK_Rotatable_Bonds:                   7
##########                       Formal_Charge:           0.0400001
##########                     HBond_Acceptors:                   6
##########                        HBond_Donors:                   2
##########                         Heavy_Atoms:                  25
##########                          Grid_Score:          -30.061983
##########                     Grid_vdw_energy:          -27.683496
##########                      Grid_es_energy:           -2.378487
##########           Internal_energy_repulsive:            7.931870

@<TRIPOS>MOLECULE
ZINC000011157684
 41 43 1 0 0
SMALL
USER_CHARGES


@<TRIPOS>ATOM
      1 O1         -1.9434    5.2521   50.7325 O.2     1  ZINC000011157684   -0.5200
      2 C2         -2.2239    4.0723   50.7125 C.2     1  ZINC000011157684    0.5100
      3 C3         -2.5286    3.3924   49.4026 C.3     1  ZINC000011157684    0.1000
      4 N4         -1.2747    3.0445   48.7297 N.pl3   1  ZINC000011157684   -0.7300
      5 C5         -1.2397    1.9807   47.8217 C.ar    1  ZINC000011157684    0.2200
      6 C6         -1.2850    0.6721   48.2823 C.ar    1  ZINC000011157684   -0.1600
      7 C7         -1.2509   -0.3773   47.3840 C.ar    1  ZINC000011157684   -0.0900
      8 C8         -1.1709   -0.1247   46.0252 C.ar    1  ZINC000011157684    0.0500
      9 F9         -1.1372   -1.1525   45.1490 F       1  ZINC000011157684   -0.1400
     10 C10        -1.1260    1.1799   45.5626 C.ar    1  ZINC000011157684   -0.0900
     11 C11        -1.1652    2.2326   46.4568 C.ar    1  ZINC000011157684   -0.0900
     12 Cl12       -1.1088    3.8679   45.8769 Cl      1  ZINC000011157684   -0.0500
     13 N13        -2.2577    3.3680   51.8611 N.am    1  ZINC000011157684   -0.7200
     14 C14        -1.9615    4.0290   53.1345 C.3     1  ZINC000011157684    0.2600
     15 H15        -2.1994    5.0900   53.0572 H       1  ZINC000011157684    0.1200
     16 C16        -0.4987    3.8645   53.4577 C.2     1  ZINC000011157684   -0.1900
     17 C17         0.2787    2.8730   53.0199 C.2     1  ZINC000011157684   -0.1200
     18 C18         1.5937    2.9303   53.4483 C.2     1  ZINC000011157684   -0.1300
     19 C19         1.8842    3.9683   54.2340 C.2     1  ZINC000011157684   -0.2100
     20 S20         0.4461    4.9547   54.4637 S.3     1  ZINC000011157684    0.1100
     21 C21        -2.7907    3.4068   54.2283 C.ar    1  ZINC000011157684   -0.0900
     22 C22        -2.2637    2.3889   55.0010 C.ar    1  ZINC000011157684   -0.1100
     23 C23        -3.0243    1.8181   56.0043 C.ar    1  ZINC000011157684   -0.1100
     24 C24        -4.3116    2.2655   56.2352 C.ar    1  ZINC000011157684   -0.1100
     25 C25        -4.8383    3.2840   55.4631 C.ar    1  ZINC000011157684   -0.1100
     26 C26        -4.0762    3.8577   54.4626 C.ar    1  ZINC000011157684   -0.1000
     27 H27        -3.1045    2.4858   49.5890 H       1  ZINC000011157684    0.1000
     28 H28        -3.1060    4.0658   48.7692 H       1  ZINC000011157684    0.1000
     29 H29        -0.4686    3.5517   48.9137 H       1  ZINC000011157684    0.4200
     30 H30        -1.3468    0.4741   49.3422 H       1  ZINC000011157684    0.1400
     31 H31        -1.2863   -1.3954   47.7422 H       1  ZINC000011157684    0.1400
     32 H32        -1.0639    1.3746   44.5021 H       1  ZINC000011157684    0.1500
     33 H33        -2.4782    2.4236   51.8446 H       1  ZINC000011157684    0.4000
     34 H34        -0.0900    2.0850   52.3800 H       1  ZINC000011157684    0.1400
     35 H35         2.3288    2.1904   53.1678 H       1  ZINC000011157684    0.1400
     36 H36         2.8547    4.1738   54.6608 H       1  ZINC000011157684    0.1700
     37 H37        -1.2579    2.0394   54.8206 H       1  ZINC000011157684    0.1200
     38 H38        -2.6127    1.0224   56.6075 H       1  ZINC000011157684    0.1300
     39 H39        -4.9061    1.8191   57.0187 H       1  ZINC000011157684    0.1300
     40 H40        -5.8442    3.6333   55.6433 H       1  ZINC000011157684    0.1300
     41 H41        -4.4877    4.6535   53.8594 H       1  ZINC000011157684    0.1300
@<TRIPOS>BOND
     1     1     2    2
     2     2     3    1
     3     2    13   am
     4     3     4    1
     5     3    27    1
     6     3    28    1
     7     4     5    1
     8     4    29    1
     9     5    11   ar
    10     5     6   ar
    11     6     7   ar
    12     6    30    1
    13     7     8   ar
    14     7    31    1
    15     8     9    1
    16     8    10   ar
    17    10    11   ar
    18    10    32    1
    19    11    12    1
    20    13    14    1
    21    13    33    1
    22    14    15    1
    23    14    16    1
    24    14    21    1
    25    16    20    1
    26    16    17    2
    27    17    18    1
    28    17    34    1
    29    18    19    2
    30    18    35    1
    31    19    20    1
    32    19    36    1
    33    21    26   ar
    34    21    22   ar
    35    22    23   ar
    36    22    37    1
    37    23    24   ar
    38    23    38    1
    39    24    25   ar
    40    24    39    1
    41    25    26   ar
    42    25    40    1
    43    26    41    1
@<TRIPOS>SUBSTRUCTURE
     1 ZINC000011157684        1 TEMP              0 ****  ****    0 ROOT


##########                                Name:    ZINC001110536231
##########                DOCK_Rotatable_Bonds:                   8
##########                         Heavy_Atoms:                  24
##########                    Molecular_Weight:             329.442
##########                DOCK_Rotatable_Bonds:                   8
##########                       Formal_Charge:          -0.0400001
##########                     HBond_Acceptors:                   5
##########                        HBond_Donors:                   1
##########                         Heavy_Atoms:                  24
##########                          Grid_Score:          -30.044430
##########                     Grid_vdw_energy:          -28.719841
##########                      Grid_es_energy:           -1.324588
##########           Internal_energy_repulsive:           29.276609

@<TRIPOS>MOLECULE
ZINC001110536231
 51 53 1 0 0
SMALL
USER_CHARGES


@<TRIPOS>ATOM
      1 C1         -1.3833    3.1743   54.5512 C.3     1  ZINC001110536231   -0.1300
      2 C2         -2.5679    4.0850   54.8806 C.3     1  ZINC001110536231   -0.1000
      3 C3         -3.7893    3.6090   54.1371 C.2     1  ZINC001110536231   -0.0200
      4 C4         -4.7994    2.7318   54.8308 C.3     1  ZINC001110536231   -0.1300
      5 C5         -3.9757    3.9631   52.8687 C.2     1  ZINC001110536231   -0.2400
      6 C6         -2.9897    4.8193   52.1917 C.2     1  ZINC001110536231    0.5400
      7 O7         -2.9156    6.0004   52.4720 O.2     1  ZINC001110536231   -0.5300
      8 N8         -2.1684    4.2949   51.2606 N.am    1  ZINC001110536231   -0.7300
      9 C9         -1.1852    5.1473   50.5875 C.3     1  ZINC001110536231    0.1100
     10 H10        -0.8740    5.9621   51.2412 H       1  ZINC001110536231    0.1000
     11 C11        -1.7613    5.7018   49.2617 C.3     1  ZINC001110536231   -0.1600
     12 C12        -0.8024    5.1236   48.1777 C.3     1  ZINC001110536231    0.0500
     13 H13        -1.2059    5.0825   47.1659 H       1  ZINC001110536231    0.1200
     14 C14         0.5236    5.9263   48.3413 C.3     1  ZINC001110536231   -0.1200
     15 C15         1.1111    5.3877   49.6687 C.3     1  ZINC001110536231   -0.1100
     16 C16         0.0468    4.3088   50.1313 C.3     1  ZINC001110536231    0.0400
     17 H17         0.4111    3.5595   50.8340 H       1  ZINC001110536231    0.1200
     18 N18        -0.4363    3.7985   48.7939 N.3     1  ZINC001110536231   -0.4900
     19 C19        -1.6127    2.9334   48.9544 C.3     1  ZINC001110536231    0.0600
     20 C20        -1.5761    1.8388   47.9192 C.ar    1  ZINC001110536231    0.0100
     21 C21        -1.9012    2.1021   46.5960 C.ar    1  ZINC001110536231   -0.2100
     22 C22        -1.8570    1.0763   45.6725 C.ar    1  ZINC001110536231    0.1400
     23 N23        -1.5110   -0.1445   46.0339 N.ar    1  ZINC001110536231   -0.5400
     24 C24        -1.1944   -0.4345   47.2851 C.ar    1  ZINC001110536231    0.3200
     25 O25        -0.8439   -1.7036   47.6126 O.3     1  ZINC001110536231   -0.3100
     26 C26         0.1727   -1.8604   48.6046 C.3     1  ZINC001110536231    0.0400
     27 C27        -1.2121    0.5489   48.2656 C.ar    1  ZINC001110536231   -0.1700
     28 H28        -0.5000    3.5185   55.0891 H       1  ZINC001110536231    0.0500
     29 H29        -1.6161    2.1526   54.8511 H       1  ZINC001110536231    0.0700
     30 H30        -1.1900    3.2032   53.4790 H       1  ZINC001110536231    0.0400
     31 H31        -2.7612    4.0561   55.9530 H       1  ZINC001110536231    0.0900
     32 H32        -2.3351    5.1067   54.5807 H       1  ZINC001110536231    0.0600
     33 H33        -5.5563    3.3554   55.3067 H       1  ZINC001110536231    0.0800
     34 H34        -5.2748    2.0773   54.1002 H       1  ZINC001110536231    0.0700
     35 H35        -4.2979    2.1283   55.5873 H       1  ZINC001110536231    0.0700
     36 H36        -4.8511    3.6220   52.3360 H       1  ZINC001110536231    0.1200
     37 H37        -2.2283    3.3531   51.0361 H       1  ZINC001110536231    0.4000
     38 H38        -2.7784    5.3426   49.1052 H       1  ZINC001110536231    0.0700
     39 H39        -1.7331    6.7915   49.2571 H       1  ZINC001110536231    0.0800
     40 H40         1.2003    5.7225   47.5115 H       1  ZINC001110536231    0.0700
     41 H41         0.3187    6.9941   48.4175 H       1  ZINC001110536231    0.0700
     42 H42         2.0792    4.9172   49.4969 H       1  ZINC001110536231    0.0800
     43 H43         1.1976    6.1887   50.4029 H       1  ZINC001110536231    0.0700
     44 H44        -1.6057    2.4916   49.9508 H       1  ZINC001110536231    0.0900
     45 H45        -2.5191    3.5250   48.8256 H       1  ZINC001110536231    0.0700
     46 H46        -2.1859    3.0984   46.2917 H       1  ZINC001110536231    0.1300
     47 H47        -2.1093    1.2758   44.6416 H       1  ZINC001110536231    0.1600
     48 H48         0.3566   -2.9217   48.7717 H       1  ZINC001110536231    0.1000
     49 H49         1.0906   -1.3819   48.2630 H       1  ZINC001110536231    0.0600
     50 H50        -0.1537   -1.3972   49.5357 H       1  ZINC001110536231    0.0600
     51 H51        -0.9528    0.3088   49.2861 H       1  ZINC001110536231    0.1400
@<TRIPOS>BOND
     1     1     2    1
     2     1    28    1
     3     1    29    1
     4     1    30    1
     5     2     3    1
     6     2    31    1
     7     2    32    1
     8     3     4    1
     9     3     5    2
    10     4    33    1
    11     4    34    1
    12     4    35    1
    13     5     6    1
    14     5    36    1
    15     6     7    2
    16     6     8   am
    17     8     9    1
    18     8    37    1
    19     9    10    1
    20     9    16    1
    21     9    11    1
    22    11    12    1
    23    11    38    1
    24    11    39    1
    25    12    13    1
    26    12    18    1
    27    12    14    1
    28    14    15    1
    29    14    40    1
    30    14    41    1
    31    15    16    1
    32    15    42    1
    33    15    43    1
    34    16    17    1
    35    16    18    1
    36    18    19    1
    37    19    20    1
    38    19    44    1
    39    19    45    1
    40    20    27   ar
    41    20    21   ar
    42    21    22   ar
    43    21    46    1
    44    22    23   ar
    45    22    47    1
    46    23    24   ar
    47    24    25    1
    48    24    27   ar
    49    25    26    1
    50    26    48    1
    51    26    49    1
    52    26    50    1
    53    27    51    1
@<TRIPOS>SUBSTRUCTURE
     1 ZINC001110536231        1 TEMP              0 ****  ****    0 ROOT


##########                                Name:    ZINC000031496632
##########                DOCK_Rotatable_Bonds:                   8
##########                         Heavy_Atoms:                  30
##########                    Molecular_Weight:             423.539
##########                DOCK_Rotatable_Bonds:                   8
##########                       Formal_Charge:          -0.0100009
##########                     HBond_Acceptors:                   8
##########                        HBond_Donors:                   1
##########                         Heavy_Atoms:                  30
##########                          Grid_Score:          -30.010546
##########                     Grid_vdw_energy:          -29.689873
##########                      Grid_es_energy:           -0.320673
##########           Internal_energy_repulsive:           10.543393

@<TRIPOS>MOLECULE
ZINC000031496632
 55 58 1 0 0
SMALL
USER_CHARGES


@<TRIPOS>ATOM
      1 C1         -9.0129    1.5820   52.2128 C.3     1  ZINC000031496632   -0.1600
      2 C2        -10.0882    0.4945   52.2552 C.3     1  ZINC000031496632    0.1600
      3 C3         -9.4255   -0.8816   52.1665 C.3     1  ZINC000031496632   -0.1600
      4 N4        -10.8364    0.5962   53.5106 N.pl3   1  ZINC000031496632   -0.3900
      5 N5        -12.2222    0.7478   53.6175 N.2     1  ZINC000031496632   -0.2300
      6 C6        -12.5707    0.8062   54.8710 C.2     1  ZINC000031496632    0.0800
      7 C7        -11.3585    0.6884   55.6739 C.ar    1  ZINC000031496632   -0.2100
      8 C8        -11.0960    0.6834   57.0486 C.ar    1  ZINC000031496632    0.0100
      9 C9         -9.7790    0.5485   57.4592 C.ar    1  ZINC000031496632    0.0500
     10 N10        -9.4611    0.5369   58.8236 N.am    1  ZINC000031496632   -0.6600
     11 C11        -9.4938   -0.6205   59.5134 C.2     1  ZINC000031496632    0.5500
     12 O12        -9.7993   -1.6550   58.9514 O.2     1  ZINC000031496632   -0.4900
     13 C13        -9.1594   -0.6327   60.9486 C.ar    1  ZINC000031496632   -0.1300
     14 C14        -7.8278   -0.7324   61.3594 C.ar    1  ZINC000031496632   -0.0600
     15 C15        -7.5218   -0.7434   62.7027 C.ar    1  ZINC000031496632   -0.1400
     16 C16        -8.5285   -0.6563   63.6515 C.ar    1  ZINC000031496632   -0.0600
     17 C17        -9.8485   -0.5578   63.2628 C.ar    1  ZINC000031496632   -0.1500
     18 C18       -10.1770   -0.5384   61.9124 C.ar    1  ZINC000031496632   -0.0600
     19 S19       -11.8619   -0.4120   61.4123 S.3     1  ZINC000031496632    0.0900
     20 C20       -12.3681   -2.1456   61.2420 C.3     1  ZINC000031496632   -0.2000
     21 C21       -13.8677   -2.2442   61.3543 C.2     1  ZINC000031496632    0.5500
     22 O22       -14.3705   -2.7450   62.3377 O.2     1  ZINC000031496632   -0.5200
     23 N23       -14.6499   -1.7761   60.3616 N.am    1  ZINC000031496632   -0.6200
     24 C24       -14.1748   -1.1558   59.1162 C.3     1  ZINC000031496632    0.1000
     25 C25       -15.4212   -0.7548   58.2994 C.3     1  ZINC000031496632   -0.1300
     26 C26       -16.5293   -0.6586   59.3811 C.3     1  ZINC000031496632   -0.1300
     27 C27       -16.1238   -1.8070   60.3419 C.3     1  ZINC000031496632    0.1000
     28 C28        -8.7740    0.4240   56.5014 C.ar    1  ZINC000031496632    0.1600
     29 N29        -9.0465    0.4319   55.2153 N.ar    1  ZINC000031496632   -0.4900
     30 C30       -10.2895    0.5518   54.7660 C.ar    1  ZINC000031496632    0.3000
     31 H31        -8.4561    1.5064   51.2788 H       1  ZINC000031496632    0.0800
     32 H32        -9.4849    2.5625   52.2760 H       1  ZINC000031496632    0.0600
     33 H33        -8.3313    1.4522   53.0535 H       1  ZINC000031496632    0.0700
     34 H34       -10.7696    0.6244   51.4144 H       1  ZINC000031496632    0.1100
     35 H35        -8.8687   -0.9573   51.2325 H       1  ZINC000031496632    0.0800
     36 H36        -8.7439   -1.0116   53.0072 H       1  ZINC000031496632    0.0700
     37 H37       -10.1915   -1.6565   52.1967 H       1  ZINC000031496632    0.0600
     38 H38       -13.5762    0.9215   55.2482 H       1  ZINC000031496632    0.2000
     39 H39       -11.8955    0.7821   57.7679 H       1  ZINC000031496632    0.1500
     40 H40        -9.2175    1.3619   59.2719 H       1  ZINC000031496632    0.4100
     41 H41        -7.0392   -0.8012   60.6248 H       1  ZINC000031496632    0.1300
     42 H42        -6.4917   -0.8205   63.0182 H       1  ZINC000031496632    0.1300
     43 H43        -8.2779   -0.6661   64.7019 H       1  ZINC000031496632    0.1300
     44 H44       -10.6269   -0.4910   64.0085 H       1  ZINC000031496632    0.1300
     45 H45       -12.0510   -2.5228   60.2697 H       1  ZINC000031496632    0.1100
     46 H46       -11.9048   -2.7385   62.0306 H       1  ZINC000031496632    0.1100
     47 H47       -13.5816   -0.2706   59.3459 H       1  ZINC000031496632    0.0700
     48 H48       -13.5754   -1.8700   58.5516 H       1  ZINC000031496632    0.0700
     49 H49       -15.2707    0.2097   57.8145 H       1  ZINC000031496632    0.0900
     50 H50       -15.6645   -1.5229   57.5653 H       1  ZINC000031496632    0.0800
     51 H51       -16.4994    0.3069   59.8862 H       1  ZINC000031496632    0.0800
     52 H52       -17.5134   -0.8417   58.9496 H       1  ZINC000031496632    0.0900
     53 H53       -16.4833   -2.7636   59.9628 H       1  ZINC000031496632    0.0700
     54 H54       -16.5170   -1.6220   61.3415 H       1  ZINC000031496632    0.0800
     55 H55        -7.7484    0.3190   56.8230 H       1  ZINC000031496632    0.1700
@<TRIPOS>BOND
     1     1     2    1
     2     1    31    1
     3     1    32    1
     4     1    33    1
     5     2     3    1
     6     2     4    1
     7     2    34    1
     8     3    35    1
     9     3    36    1
    10     3    37    1
    11     4    30    1
    12     4     5    1
    13     5     6    2
    14     6     7    1
    15     6    38    1
    16     7    30   ar
    17     7     8   ar
    18     8     9   ar
    19     8    39    1
    20     9    10    1
    21     9    28   ar
    22    10    11   am
    23    10    40    1
    24    11    12    2
    25    11    13    1
    26    13    18   ar
    27    13    14   ar
    28    14    15   ar
    29    14    41    1
    30    15    16   ar
    31    15    42    1
    32    16    17   ar
    33    16    43    1
    34    17    18   ar
    35    17    44    1
    36    18    19    1
    37    19    20    1
    38    20    21    1
    39    20    45    1
    40    20    46    1
    41    21    22    2
    42    21    23   am
    43    23    27    1
    44    23    24    1
    45    24    25    1
    46    24    47    1
    47    24    48    1
    48    25    26    1
    49    25    49    1
    50    25    50    1
    51    26    27    1
    52    26    51    1
    53    26    52    1
    54    27    53    1
    55    27    54    1
    56    28    29   ar
    57    28    55    1
    58    29    30   ar
@<TRIPOS>SUBSTRUCTURE
     1 ZINC000031496632        1 TEMP              0 ****  ****    0 ROOT


##########                                Name:    ZINC000680410869
##########                DOCK_Rotatable_Bonds:                   6
##########                         Heavy_Atoms:                  24
##########                    Molecular_Weight:             335.354
##########                DOCK_Rotatable_Bonds:                   6
##########                       Formal_Charge:        -1.04308e-07
##########                     HBond_Acceptors:                   7
##########                        HBond_Donors:                   0
##########                         Heavy_Atoms:                  24
##########                          Grid_Score:          -29.961517
##########                     Grid_vdw_energy:          -28.712582
##########                      Grid_es_energy:           -1.248936
##########           Internal_energy_repulsive:            8.730841

@<TRIPOS>MOLECULE
ZINC000680410869
 43 45 1 0 0
SMALL
USER_CHARGES


@<TRIPOS>ATOM
      1 O1         -1.0327   -0.2627   47.6322 O.2     1  ZINC000680410869   -0.5200
      2 C2         -0.9673    0.7389   46.9463 C.2     1  ZINC000680410869    0.6100
      3 C3         -0.1763    0.7294   45.6988 C.2     1  ZINC000680410869    0.0100
      4 N4          1.0952    1.0536   45.5737 N.2     1  ZINC000680410869   -0.2500
      5 N5          1.4627    0.9318   44.3488 N.pl3   1  ZINC000680410869   -0.3500
      6 C6          2.8112    1.2080   43.8474 C.3     1  ZINC000680410869    0.5000
      7 F7          2.8659    2.5152   43.3519 F       1  ZINC000680410869   -0.1600
      8 F8          3.7344    1.0650   44.8887 F       1  ZINC000680410869   -0.1700
      9 C9          0.4276    0.5120   43.5902 C.2     1  ZINC000680410869    0.0100
     10 C10        -0.6379    0.3646   44.4118 C.2     1  ZINC000680410869   -0.1700
     11 N11        -1.6211    1.8563   47.3211 N.am    1  ZINC000680410869   -0.6000
     12 C12        -1.5618    3.0788   46.5042 C.3     1  ZINC000680410869    0.0800
     13 C13        -1.1828    4.2515   47.4157 C.3     1  ZINC000680410869    0.0500
     14 O14        -2.0677    4.2803   48.5382 O.3     1  ZINC000680410869   -0.3700
     15 C15        -1.9950    3.1204   49.3707 C.3     1  ZINC000680410869    0.0800
     16 H16        -0.9726    2.9904   49.7256 H       1  ZINC000680410869    0.0600
     17 C17        -2.9336    3.2903   50.5670 C.3     1  ZINC000680410869   -0.1000
     18 C18        -2.1565    3.8815   51.7449 C.3     1  ZINC000680410869   -0.0800
     19 C19        -2.8547    3.5313   53.0338 C.ar    1  ZINC000680410869   -0.0800
     20 C20        -2.1196    3.1062   54.1245 C.ar    1  ZINC000680410869   -0.1200
     21 C21        -2.7600    2.7850   55.3067 C.ar    1  ZINC000680410869   -0.1200
     22 C22        -4.1354    2.8894   55.3983 C.ar    1  ZINC000680410869   -0.1300
     23 C23        -4.8703    3.3154   54.3078 C.ar    1  ZINC000680410869   -0.1200
     24 C24        -4.2296    3.6407   53.1269 C.ar    1  ZINC000680410869   -0.1200
     25 C25        -2.4202    1.8879   48.5563 C.3     1  ZINC000680410869    0.0600
     26 H26         3.0527    0.5064   43.0489 H       1  ZINC000680410869    0.1700
     27 H27         0.4473    0.3246   42.5267 H       1  ZINC000680410869    0.1900
     28 H28        -1.6325    0.0422   44.1413 H       1  ZINC000680410869    0.1700
     29 H29        -0.8100    2.9626   45.7237 H       1  ZINC000680410869    0.1000
     30 H30        -2.5357    3.2653   46.0516 H       1  ZINC000680410869    0.0800
     31 H31        -0.1575    4.1256   47.7635 H       1  ZINC000680410869    0.0600
     32 H32        -1.2678    5.1860   46.8611 H       1  ZINC000680410869    0.1100
     33 H33        -3.7492    3.9608   50.2966 H       1  ZINC000680410869    0.0800
     34 H34        -3.3402    2.3195   50.8505 H       1  ZINC000680410869    0.0800
     35 H35        -1.1464    3.4720   51.7561 H       1  ZINC000680410869    0.0700
     36 H36        -2.1079    4.9654   51.6408 H       1  ZINC000680410869    0.0800
     37 H37        -1.0451    3.0246   54.0530 H       1  ZINC000680410869    0.1200
     38 H38        -2.1858    2.4522   56.1588 H       1  ZINC000680410869    0.1200
     39 H39        -4.6358    2.6378   56.3217 H       1  ZINC000680410869    0.1200
     40 H40        -5.9449    3.3967   54.3791 H       1  ZINC000680410869    0.1200
     41 H41        -4.8036    3.9736   52.2748 H       1  ZINC000680410869    0.1200
     42 H42        -3.4803    1.9569   48.3125 H       1  ZINC000680410869    0.0800
     43 H43        -2.2343    0.9833   49.1354 H       1  ZINC000680410869    0.1300
@<TRIPOS>BOND
     1     1     2    2
     2     2     3    1
     3     2    11   am
     4     3    10    1
     5     3     4    2
     6     4     5    1
     7     5     6    1
     8     5     9    1
     9     6     7    1
    10     6     8    1
    11     6    26    1
    12     9    10    2
    13     9    27    1
    14    10    28    1
    15    11    25    1
    16    11    12    1
    17    12    13    1
    18    12    29    1
    19    12    30    1
    20    13    14    1
    21    13    31    1
    22    13    32    1
    23    14    15    1
    24    15    16    1
    25    15    17    1
    26    15    25    1
    27    17    18    1
    28    17    33    1
    29    17    34    1
    30    18    19    1
    31    18    35    1
    32    18    36    1
    33    19    24   ar
    34    19    20   ar
    35    20    21   ar
    36    20    37    1
    37    21    22   ar
    38    21    38    1
    39    22    23   ar
    40    22    39    1
    41    23    24   ar
    42    23    40    1
    43    24    41    1
    44    25    42    1
    45    25    43    1
@<TRIPOS>SUBSTRUCTURE
     1 ZINC000680410869        1 TEMP              0 ****  ****    0 ROOT


##########                                Name:    ZINC000004313955
##########                DOCK_Rotatable_Bonds:                   6
##########                         Heavy_Atoms:                  26
##########                    Molecular_Weight:             414.358
##########                DOCK_Rotatable_Bonds:                   6
##########                       Formal_Charge:           0.0299997
##########                     HBond_Acceptors:                   9
##########                        HBond_Donors:                   2
##########                         Heavy_Atoms:                  26
##########                          Grid_Score:          -29.927279
##########                     Grid_vdw_energy:          -28.288563
##########                      Grid_es_energy:           -1.638716
##########           Internal_energy_repulsive:           18.291224

@<TRIPOS>MOLECULE
ZINC000004313955
 47 49 1 0 0
SMALL
USER_CHARGES


@<TRIPOS>ATOM
      1 C1         -3.5355    5.6604   52.1833 C.3     1  ZINC000004313955   -0.1500
      2 C2         -2.1741    5.2629   51.6090 C.3     1  ZINC000004313955   -0.1100
      3 H3         -1.6852    4.5609   52.2844 H       1  ZINC000004313955    0.0800
      4 C4         -1.3025    6.5109   51.4509 C.3     1  ZINC000004313955   -0.1100
      5 C5          0.0709    6.1104   50.9072 C.3     1  ZINC000004313955   -0.1100
      6 H6          0.6990    6.9967   50.8170 H       1  ZINC000004313955    0.0900
      7 C7          0.7282    5.1140   51.8644 C.3     1  ZINC000004313955   -0.1500
      8 C8         -0.0989    5.4616   49.5300 C.3     1  ZINC000004313955    0.1200
      9 N9         -1.0501    4.3478   49.6460 N.am    1  ZINC000004313955   -0.6000
     10 C10        -0.7187    3.1141   49.2164 C.2     1  ZINC000004313955    0.5400
     11 O11         0.3731    2.9154   48.7272 O.2     1  ZINC000004313955   -0.5300
     12 C12        -1.7048    1.9817   49.3439 C.3     1  ZINC000004313955   -0.1400
     13 S13        -2.7679    1.9398   47.8795 S.3     1  ZINC000004313955    0.0800
     14 C14        -1.7456    1.0102   46.7860 C.2     1  ZINC000004313955    0.1100
     15 N15        -1.5178   -0.2829   46.8420 N.2     1  ZINC000004313955   -0.2800
     16 N16        -0.7260   -0.6331   45.8923 N.2     1  ZINC000004313955   -0.2400
     17 C17        -0.3998    0.4145   45.1716 C.2     1  ZINC000004313955    0.2500
     18 C18         0.4906    0.4263   43.9916 C.ar    1  ZINC000004313955   -0.0100
     19 C19         0.0417   -0.0777   42.7701 C.ar    1  ZINC000004313955   -0.0700
     20 C20         0.8771   -0.0642   41.6724 C.ar    1  ZINC000004313955   -0.1100
     21 C21         2.1591    0.4476   41.7801 C.ar    1  ZINC000004313955   -0.0100
     22 Cl22        3.2040    0.4602   40.3938 Cl      1  ZINC000004313955   -0.0500
     23 C23         2.6112    0.9499   42.9888 C.ar    1  ZINC000004313955   -0.1100
     24 C24         1.7829    0.9472   44.0931 C.ar    1  ZINC000004313955    0.0100
     25 Cl25        2.3506    1.5770   45.6079 Cl      1  ZINC000004313955   -0.0100
     26 N26        -1.0470    1.4983   45.7185 N.pl3   1  ZINC000004313955   -0.3000
     27 N27        -0.9954    2.7939   45.2885 N.3     1  ZINC000004313955   -0.5800
     28 C28        -2.3694    4.6038   50.2400 C.3     1  ZINC000004313955    0.1100
     29 H29        -4.1563    4.7714   52.2947 H       1  ZINC000004313955    0.0600
     30 H30        -3.3959    6.1304   53.1568 H       1  ZINC000004313955    0.0600
     31 H31        -4.0239    6.3624   51.5076 H       1  ZINC000004313955    0.0600
     32 H32        -1.7804    7.2021   50.7566 H       1  ZINC000004313955    0.0700
     33 H33        -1.1824    6.9951   52.4200 H       1  ZINC000004313955    0.0700
     34 H34         0.1003    4.2275   51.9535 H       1  ZINC000004313955    0.0600
     35 H35         1.7063    4.8291   51.4768 H       1  ZINC000004313955    0.0600
     36 H36         0.8463    5.5757   52.8448 H       1  ZINC000004313955    0.0600
     37 H37        -0.4827    6.1980   48.8240 H       1  ZINC000004313955    0.0700
     38 H38         0.8633    5.0856   49.1821 H       1  ZINC000004313955    0.1000
     39 H39        -1.1655    1.0382   49.4285 H       1  ZINC000004313955    0.1300
     40 H40        -2.3170    2.1314   50.2331 H       1  ZINC000004313955    0.1300
     41 H41        -0.9578   -0.4780   42.6845 H       1  ZINC000004313955    0.1600
     42 H42         0.5304   -0.4542   40.7267 H       1  ZINC000004313955    0.1500
     43 H43         3.6121    1.3477   43.0667 H       1  ZINC000004313955    0.1500
     44 H44        -1.1786    2.8537   44.2980 H       1  ZINC000004313955    0.3700
     45 H45        -1.6354    3.3738   45.8102 H       1  ZINC000004313955    0.3800
     46 H46        -2.9050    3.6621   50.3600 H       1  ZINC000004313955    0.0900
     47 H47        -2.9388    5.2703   49.5922 H       1  ZINC000004313955    0.0800
@<TRIPOS>BOND
     1     1     2    1
     2     1    29    1
     3     1    30    1
     4     1    31    1
     5     2     3    1
     6     2    28    1
     7     2     4    1
     8     4     5    1
     9     4    32    1
    10     4    33    1
    11     5     6    1
    12     5     7    1
    13     5     8    1
    14     7    34    1
    15     7    35    1
    16     7    36    1
    17     8     9    1
    18     8    37    1
    19     8    38    1
    20     9    10   am
    21     9    28    1
    22    10    11    2
    23    10    12    1
    24    12    13    1
    25    12    39    1
    26    12    40    1
    27    13    14    1
    28    14    26    1
    29    14    15    2
    30    15    16    1
    31    16    17    2
    32    17    18    1
    33    17    26    1
    34    18    24   ar
    35    18    19   ar
    36    19    20   ar
    37    19    41    1
    38    20    21   ar
    39    20    42    1
    40    21    22    1
    41    21    23   ar
    42    23    24   ar
    43    23    43    1
    44    24    25    1
    45    26    27    1
    46    27    44    1
    47    27    45    1
    48    28    46    1
    49    28    47    1
@<TRIPOS>SUBSTRUCTURE
     1 ZINC000004313955        1 TEMP              0 ****  ****    0 ROOT


##########                                Name:    ZINC000549659617
##########                DOCK_Rotatable_Bonds:                   9
##########                         Heavy_Atoms:                  28
##########                    Molecular_Weight:              418.48
##########                DOCK_Rotatable_Bonds:                   9
##########                       Formal_Charge:          0.00999956
##########                     HBond_Acceptors:                   9
##########                        HBond_Donors:                   1
##########                         Heavy_Atoms:                  28
##########                          Grid_Score:          -29.926142
##########                     Grid_vdw_energy:          -29.751324
##########                      Grid_es_energy:           -0.174817
##########           Internal_energy_repulsive:           22.945877

@<TRIPOS>MOLECULE
ZINC000549659617
 53 55 1 0 0
SMALL
USER_CHARGES


@<TRIPOS>ATOM
      1 C1         -0.3832    6.1696   45.2906 C.3     1  ZINC000549659617   -0.1500
      2 C2          0.0374    4.8035   45.8365 C.3     1  ZINC000549659617   -0.1500
      3 C3         -1.2047    3.9370   46.0538 C.3     1  ZINC000549659617    0.1100
      4 N4         -1.2007    3.4121   47.4217 N.am    1  ZINC000549659617   -0.6100
      5 C5         -1.5595    4.2068   48.4494 C.2     1  ZINC000549659617    0.7100
      6 O6         -1.8851    5.3597   48.2416 O.2     1  ZINC000549659617   -0.5700
      7 N7         -1.5575    3.7234   49.7076 N.am    1  ZINC000549659617   -0.7400
      8 C8         -1.9459    4.5878   50.8249 C.3     1  ZINC000549659617    0.2300
      9 H9         -3.0100    4.8137   50.7567 H       1  ZINC000549659617    0.1100
     10 C10        -1.6645    3.8827   52.1267 C.ar    1  ZINC000549659617   -0.0900
     11 C11        -0.3893    3.4279   52.4047 C.ar    1  ZINC000549659617   -0.0800
     12 C12        -0.1311    2.7811   53.5991 C.ar    1  ZINC000549659617   -0.1100
     13 C13        -1.1482    2.5897   54.5152 C.ar    1  ZINC000549659617   -0.0700
     14 C14        -2.4236    3.0455   54.2376 C.ar    1  ZINC000549659617   -0.1800
     15 C15        -3.5326    2.8364   55.2362 C.3     1  ZINC000549659617    0.5100
     16 F16        -4.7660    2.8674   54.5767 F       1  ZINC000549659617   -0.1800
     17 F17        -3.3692    1.5956   55.8616 F       1  ZINC000549659617   -0.1700
     18 F18        -3.4921    3.8520   56.1975 F       1  ZINC000549659617   -0.1700
     19 C19        -2.6807    3.6959   53.0454 C.ar    1  ZINC000549659617   -0.0500
     20 C20        -1.1434    5.8891   50.7658 C.3     1  ZINC000549659617   -0.1700
     21 C21        -1.9281    7.2020   50.7313 C.3     1  ZINC000549659617   -0.1700
     22 C22        -1.1740    6.7946   51.9987 C.3     1  ZINC000549659617   -0.1800
     23 C23        -0.8068    2.0235   47.6723 C.3     1  ZINC000549659617    0.1700
     24 H24        -0.7846    1.8299   48.7446 H       1  ZINC000549659617    0.1100
     25 C25         0.5773    1.7494   47.0585 C.3     1  ZINC000549659617   -0.1400
     26 C26         0.8143    0.2263   47.0336 C.3     1  ZINC000549659617   -0.5900
     27 S27        -0.8550   -0.5134   46.9230 S.o2    1  ZINC000549659617    2.3900
     28 O28        -1.0187   -1.1176   45.6472 O.2     1  ZINC000549659617   -0.9300
     29 O29        -1.1162   -1.2646   48.1006 O.2     1  ZINC000549659617   -0.9400
     30 C30        -1.8003    1.0563   46.9785 C.3     1  ZINC000549659617   -0.6100
     31 H31         0.5017    6.7870   45.1358 H       1  ZINC000549659617    0.0600
     32 H32        -0.9043    6.0372   44.3425 H       1  ZINC000549659617    0.0600
     33 H33        -1.0464    6.6578   46.0046 H       1  ZINC000549659617    0.0600
     34 H34         0.7006    4.3154   45.1225 H       1  ZINC000549659617    0.0700
     35 H35         0.5584    4.9360   46.7847 H       1  ZINC000549659617    0.0700
     36 H36        -2.0998    4.5393   45.8984 H       1  ZINC000549659617    0.0800
     37 H37        -1.1974    3.1076   45.3465 H       1  ZINC000549659617    0.0900
     38 H38        -1.2989    2.8033   49.8732 H       1  ZINC000549659617    0.4000
     39 H39         0.4054    3.5774   51.6888 H       1  ZINC000549659617    0.1300
     40 H40         0.8651    2.4250   53.8160 H       1  ZINC000549659617    0.1400
     41 H41        -0.9467    2.0838   55.4479 H       1  ZINC000549659617    0.1400
     42 H42        -3.6769    4.0519   52.8285 H       1  ZINC000549659617    0.1400
     43 H43        -0.2139    5.8429   50.1984 H       1  ZINC000549659617    0.1100
     44 H44        -1.5149    8.0199   50.1409 H       1  ZINC000549659617    0.0900
     45 H45        -3.0161    7.1388   50.7507 H       1  ZINC000549659617    0.0900
     46 H46        -1.7660    6.4632   52.8518 H       1  ZINC000549659617    0.1200
     47 H47        -0.2649    7.3443   52.2422 H       1  ZINC000549659617    0.0900
     48 H48         0.6120    2.1423   46.0423 H       1  ZINC000549659617    0.1100
     49 H49         1.3475    2.2303   47.6617 H       1  ZINC000549659617    0.0900
     50 H50         1.4092   -0.0501   46.1631 H       1  ZINC000549659617    0.1400
     51 H51         1.3105   -0.0946   47.9495 H       1  ZINC000549659617    0.1400
     52 H52        -2.7075    0.9409   47.5716 H       1  ZINC000549659617    0.1400
     53 H53        -2.0362    1.4016   45.9719 H       1  ZINC000549659617    0.1600
@<TRIPOS>BOND
     1     1     2    1
     2     1    31    1
     3     1    32    1
     4     1    33    1
     5     2     3    1
     6     2    34    1
     7     2    35    1
     8     3     4    1
     9     3    36    1
    10     3    37    1
    11     4     5   am
    12     4    23    1
    13     5     6    2
    14     5     7   am
    15     7     8    1
    16     7    38    1
    17     8     9    1
    18     8    10    1
    19     8    20    1
    20    10    19   ar
    21    10    11   ar
    22    11    12   ar
    23    11    39    1
    24    12    13   ar
    25    12    40    1
    26    13    14   ar
    27    13    41    1
    28    14    15    1
    29    14    19   ar
    30    15    16    1
    31    15    17    1
    32    15    18    1
    33    19    42    1
    34    20    22    1
    35    20    21    1
    36    20    43    1
    37    21    22    1
    38    21    44    1
    39    21    45    1
    40    22    46    1
    41    22    47    1
    42    23    24    1
    43    23    30    1
    44    23    25    1
    45    25    26    1
    46    25    48    1
    47    25    49    1
    48    26    27    1
    49    26    50    1
    50    26    51    1
    51    27    28    2
    52    27    29    2
    53    27    30    1
    54    30    52    1
    55    30    53    1
@<TRIPOS>SUBSTRUCTURE
     1 ZINC000549659617        1 TEMP              0 ****  ****    0 ROOT


##########                                Name:    ZINC000001174632
##########                DOCK_Rotatable_Bonds:                   6
##########                         Heavy_Atoms:                  29
##########                    Molecular_Weight:             385.419
##########                DOCK_Rotatable_Bonds:                   6
##########                       Formal_Charge:           0.0400005
##########                     HBond_Acceptors:                   5
##########                        HBond_Donors:                   1
##########                         Heavy_Atoms:                  29
##########                          Grid_Score:          -29.908794
##########                     Grid_vdw_energy:          -29.021910
##########                      Grid_es_energy:           -0.886885
##########           Internal_energy_repulsive:           15.351339

@<TRIPOS>MOLECULE
ZINC000001174632
 48 51 1 0 0
SMALL
USER_CHARGES


@<TRIPOS>ATOM
      1 C1        -14.3967   -2.6897   61.4583 C.3     1  ZINC000001174632    0.0400
      2 O2        -14.2712   -1.4068   60.7901 O.3     1  ZINC000001174632   -0.3500
      3 C3        -13.6768   -1.4024   59.5806 C.2     1  ZINC000001174632    0.5200
      4 O4        -13.3486   -0.3503   59.0688 O.2     1  ZINC000001174632   -0.5200
      5 C5        -13.4249   -2.6734   58.8789 C.ar    1  ZINC000001174632   -0.2000
      6 C6        -14.4689   -3.3372   58.2302 C.ar    1  ZINC000001174632   -0.0200
      7 C7        -14.2264   -4.5255   57.5753 C.ar    1  ZINC000001174632   -0.1800
      8 C8        -12.9512   -5.0671   57.5560 C.ar    1  ZINC000001174632   -0.0300
      9 C9        -11.9089   -4.4239   58.1924 C.ar    1  ZINC000001174632   -0.1900
     10 C10       -12.1320   -3.2223   58.8530 C.ar    1  ZINC000001174632    0.2600
     11 N11       -11.0851   -2.5729   59.4938 N.pl3   1  ZINC000001174632   -0.6500
     12 C12       -10.4118   -1.5629   58.8561 C.2     1  ZINC000001174632    0.2300
     13 C13        -9.5551   -0.6645   59.4627 C.2     1  ZINC000001174632   -0.1800
     14 C14        -9.2118   -0.6310   60.9017 C.ar    1  ZINC000001174632   -0.0600
     15 C15        -8.0201   -1.2025   61.3502 C.ar    1  ZINC000001174632   -0.0600
     16 C16        -7.7038   -1.1692   62.6922 C.ar    1  ZINC000001174632   -0.1500
     17 C17        -8.5690   -0.5686   63.5964 C.ar    1  ZINC000001174632    0.1400
     18 O18        -8.2535   -0.5379   64.9185 O.3     1  ZINC000001174632   -0.3200
     19 C19        -8.2203    0.7447   65.5478 C.3     1  ZINC000001174632    0.0300
     20 C20        -9.7552    0.0010   63.1544 C.ar    1  ZINC000001174632   -0.2100
     21 C21       -10.0760   -0.0226   61.8133 C.ar    1  ZINC000001174632   -0.0500
     22 C22        -9.0430    0.2509   58.4351 C.2     1  ZINC000001174632    0.4500
     23 O23        -8.2652    1.1689   58.6073 O.2     1  ZINC000001174632   -0.4100
     24 C24        -9.6569   -0.1590   57.1419 C.ar    1  ZINC000001174632   -0.1600
     25 C25        -9.5459    0.3299   55.8539 C.ar    1  ZINC000001174632   -0.0500
     26 C26       -10.2575   -0.2712   54.8204 C.ar    1  ZINC000001174632   -0.1100
     27 C27       -11.0728   -1.3523   55.0764 C.ar    1  ZINC000001174632   -0.0900
     28 C28       -11.1920   -1.8524   56.3677 C.ar    1  ZINC000001174632   -0.0800
     29 C29       -10.4829   -1.2659   57.4056 C.ar    1  ZINC000001174632   -0.0600
     30 H30       -13.4058   -3.1150   61.6174 H       1  ZINC000001174632    0.0700
     31 H31       -14.8915   -2.5519   62.4197 H       1  ZINC000001174632    0.1100
     32 H32       -14.9870   -3.3655   60.8394 H       1  ZINC000001174632    0.0700
     33 H33       -15.4649   -2.9200   58.2422 H       1  ZINC000001174632    0.1400
     34 H34       -15.0350   -5.0375   57.0746 H       1  ZINC000001174632    0.1300
     35 H35       -12.7717   -5.9987   57.0400 H       1  ZINC000001174632    0.1300
     36 H36       -10.9180   -4.8531   58.1734 H       1  ZINC000001174632    0.1300
     37 H37       -10.8300   -2.8338   60.3925 H       1  ZINC000001174632    0.4300
     38 H38        -7.3468   -1.6705   60.6473 H       1  ZINC000001174632    0.1300
     39 H39        -6.7819   -1.6112   63.0400 H       1  ZINC000001174632    0.1300
     40 H40        -7.4778    1.3721   65.0548 H       1  ZINC000001174632    0.0600
     41 H41        -9.2015    1.2131   65.4698 H       1  ZINC000001174632    0.0600
     42 H42        -7.9564    0.6269   66.5988 H       1  ZINC000001174632    0.1000
     43 H43       -10.4258    0.4670   63.8611 H       1  ZINC000001174632    0.1300
     44 H44       -10.9988    0.4211   61.4701 H       1  ZINC000001174632    0.1300
     45 H45        -8.9083    1.1775   55.6501 H       1  ZINC000001174632    0.1400
     46 H46       -10.1708    0.1109   53.8139 H       1  ZINC000001174632    0.1400
     47 H47       -11.6226   -1.8132   54.2692 H       1  ZINC000001174632    0.1400
     48 H48       -11.8325   -2.6999   56.5621 H       1  ZINC000001174632    0.1300
@<TRIPOS>BOND
     1     1     2    1
     2     1    30    1
     3     1    31    1
     4     1    32    1
     5     2     3    1
     6     3     4    2
     7     3     5    1
     8     5    10   ar
     9     5     6   ar
    10     6     7   ar
    11     6    33    1
    12     7     8   ar
    13     7    34    1
    14     8     9   ar
    15     8    35    1
    16     9    10   ar
    17     9    36    1
    18    10    11    1
    19    11    12    1
    20    11    37    1
    21    12    29    1
    22    12    13    2
    23    13    14    1
    24    13    22    1
    25    14    21   ar
    26    14    15   ar
    27    15    16   ar
    28    15    38    1
    29    16    17   ar
    30    16    39    1
    31    17    18    1
    32    17    20   ar
    33    18    19    1
    34    19    40    1
    35    19    41    1
    36    19    42    1
    37    20    21   ar
    38    20    43    1
    39    21    44    1
    40    22    23    2
    41    22    24    1
    42    24    29   ar
    43    24    25   ar
    44    25    26   ar
    45    25    45    1
    46    26    27   ar
    47    26    46    1
    48    27    28   ar
    49    27    47    1
    50    28    29   ar
    51    28    48    1
@<TRIPOS>SUBSTRUCTURE
     1 ZINC000001174632        1 TEMP              0 ****  ****    0 ROOT


##########                                Name:    ZINC000190927708
##########                DOCK_Rotatable_Bonds:                  10
##########                         Heavy_Atoms:                  26
##########                    Molecular_Weight:             358.437
##########                DOCK_Rotatable_Bonds:                  10
##########                       Formal_Charge:           0.0499998
##########                     HBond_Acceptors:                   6
##########                        HBond_Donors:                   1
##########                         Heavy_Atoms:                  26
##########                          Grid_Score:          -29.906050
##########                     Grid_vdw_energy:          -29.335096
##########                      Grid_es_energy:           -0.570953
##########           Internal_energy_repulsive:           20.566401

@<TRIPOS>MOLECULE
ZINC000190927708
 52 53 1 0 0
SMALL
USER_CHARGES


@<TRIPOS>ATOM
      1 C1        -14.4673   -5.0542   56.3982 C.3     1  ZINC000190927708   -0.1500
      2 C2        -14.5610   -3.7412   57.1783 C.3     1  ZINC000190927708   -0.1500
      3 C3        -14.0016   -3.9444   58.5878 C.3     1  ZINC000190927708    0.1000
      4 N4        -13.8649   -2.6453   59.2509 N.am    1  ZINC000190927708   -0.5900
      5 C5        -12.7012   -1.9694   59.1755 C.2     1  ZINC000190927708    0.5300
      6 O6        -12.5885   -0.8932   59.7231 O.2     1  ZINC000190927708   -0.5300
      7 C7        -11.5404   -2.5509   58.4105 C.3     1  ZINC000190927708   -0.0800
      8 C8        -10.3950   -1.5714   58.4144 C.2     1  ZINC000190927708   -0.1700
      9 C9        -10.1738   -0.7866   57.3309 C.2     1  ZINC000190927708    0.0000
     10 C10        -9.0531    0.1549   57.3666 C.ar    1  ZINC000190927708   -0.1300
     11 C11        -8.7757    0.9909   56.2804 C.ar    1  ZINC000190927708   -0.0500
     12 C12        -7.7229    1.8594   56.3457 C.ar    1  ZINC000190927708   -0.1500
     13 C13        -6.9261    1.9193   57.4805 C.ar    1  ZINC000190927708   -0.0600
     14 C14        -7.1806    1.1045   58.5628 C.ar    1  ZINC000190927708   -0.1600
     15 C15        -8.2471    0.2129   58.5195 C.ar    1  ZINC000190927708    0.1900
     16 N16        -8.5250   -0.6133   59.5876 N.am    1  ZINC000190927708   -0.6300
     17 C17        -9.5603   -1.4704   59.5479 C.2     1  ZINC000190927708    0.5500
     18 O18        -9.7764   -2.1860   60.5106 O.2     1  ZINC000190927708   -0.5300
     19 C19       -14.9929   -2.0808   59.9961 C.3     1  ZINC000190927708    0.1500
     20 H20       -15.8260   -2.7836   59.9816 H       1  ZINC000190927708    0.1400
     21 C21       -15.4249   -0.7643   59.3474 C.3     1  ZINC000190927708   -0.1300
     22 C22       -16.9451   -0.6222   59.4450 C.3     1  ZINC000190927708   -0.1500
     23 C23       -14.5758   -1.8255   61.4215 C.2     1  ZINC000190927708    0.4500
     24 O24       -13.8341   -2.5977   61.9814 O.2     1  ZINC000190927708   -0.5000
     25 O25       -15.0283   -0.7404   62.0691 O.3     1  ZINC000190927708   -0.3500
     26 C26       -14.5697   -0.5477   63.4332 C.3     1  ZINC000190927708    0.0600
     27 C27       -15.3447    0.6054   64.0738 C.3     1  ZINC000190927708   -0.1500
     28 H28       -15.0448   -5.8234   56.9109 H       1  ZINC000190927708    0.0600
     29 H29       -14.8657   -4.9093   55.3941 H       1  ZINC000190927708    0.0600
     30 H30       -13.4245   -5.3650   56.3340 H       1  ZINC000190927708    0.0600
     31 H31       -13.9834   -2.9720   56.6657 H       1  ZINC000190927708    0.0800
     32 H32       -15.6037   -3.4304   57.2426 H       1  ZINC000190927708    0.0700
     33 H33       -14.6811   -4.5753   59.1610 H       1  ZINC000190927708    0.0900
     34 H34       -13.0253   -4.4250   58.5255 H       1  ZINC000190927708    0.0900
     35 H35       -11.2242   -3.4815   58.8818 H       1  ZINC000190927708    0.1100
     36 H36       -11.8452   -2.7494   57.3829 H       1  ZINC000190927708    0.1200
     37 H37       -10.8099   -0.8547   56.4609 H       1  ZINC000190927708    0.1400
     38 H38        -9.3909    0.9501   55.3937 H       1  ZINC000190927708    0.1400
     39 H39        -7.5086    2.5047   55.5065 H       1  ZINC000190927708    0.1300
     40 H40        -6.0977    2.6114   57.5158 H       1  ZINC000190927708    0.1300
     41 H41        -6.5547    1.1587   59.4413 H       1  ZINC000190927708    0.1300
     42 H42        -7.9681   -0.5729   60.3808 H       1  ZINC000190927708    0.4200
     43 H43       -14.9481    0.0689   59.8639 H       1  ZINC000190927708    0.0900
     44 H44       -15.1261   -0.7605   58.2991 H       1  ZINC000190927708    0.0800
     45 H45       -17.2528    0.3157   58.9828 H       1  ZINC000190927708    0.0600
     46 H46       -17.4217   -1.4553   58.9285 H       1  ZINC000190927708    0.0600
     47 H47       -17.2437   -0.6260   60.4933 H       1  ZINC000190927708    0.0600
     48 H48       -14.7375   -1.4604   64.0052 H       1  ZINC000190927708    0.0700
     49 H49       -13.5054   -0.3122   63.4288 H       1  ZINC000190927708    0.0700
     50 H50       -15.1769    1.5180   63.5019 H       1  ZINC000190927708    0.0700
     51 H51       -16.4090    0.3699   64.0782 H       1  ZINC000190927708    0.0700
     52 H52       -15.0003    0.7500   65.0979 H       1  ZINC000190927708    0.0800
@<TRIPOS>BOND
     1     1     2    1
     2     1    28    1
     3     1    29    1
     4     1    30    1
     5     2     3    1
     6     2    31    1
     7     2    32    1
     8     3     4    1
     9     3    33    1
    10     3    34    1
    11     4     5   am
    12     4    19    1
    13     5     6    2
    14     5     7    1
    15     7     8    1
    16     7    35    1
    17     7    36    1
    18     8    17    1
    19     8     9    2
    20     9    10    1
    21     9    37    1
    22    10    15   ar
    23    10    11   ar
    24    11    12   ar
    25    11    38    1
    26    12    13   ar
    27    12    39    1
    28    13    14   ar
    29    13    40    1
    30    14    15   ar
    31    14    41    1
    32    15    16    1
    33    16    17   am
    34    16    42    1
    35    17    18    2
    36    19    20    1
    37    19    21    1
    38    19    23    1
    39    21    22    1
    40    21    43    1
    41    21    44    1
    42    22    45    1
    43    22    46    1
    44    22    47    1
    45    23    24    2
    46    23    25    1
    47    25    26    1
    48    26    27    1
    49    26    48    1
    50    26    49    1
    51    27    50    1
    52    27    51    1
    53    27    52    1
@<TRIPOS>SUBSTRUCTURE
     1 ZINC000190927708        1 TEMP              0 ****  ****    0 ROOT


##########                                Name:    ZINC000859202493
##########                DOCK_Rotatable_Bonds:                  11
##########                         Heavy_Atoms:                  25
##########                    Molecular_Weight:             382.404
##########                DOCK_Rotatable_Bonds:                  11
##########                       Formal_Charge:          -0.0200009
##########                     HBond_Acceptors:                  10
##########                        HBond_Donors:                   3
##########                         Heavy_Atoms:                  25
##########                          Grid_Score:          -29.897121
##########                     Grid_vdw_energy:          -29.921694
##########                      Grid_es_energy:            0.024572
##########           Internal_energy_repulsive:           17.743059

@<TRIPOS>MOLECULE
ZINC000859202493
 46 46 1 0 0
SMALL
USER_CHARGES


@<TRIPOS>ATOM
      1 C1          2.3478    3.4232   45.7157 C.3     1  ZINC000859202493   -0.1500
      2 C2          2.7527    2.0112   46.1436 C.3     1  ZINC000859202493   -0.1200
      3 C3          2.3182    1.7726   47.5910 C.3     1  ZINC000859202493   -0.1000
      4 H4          1.2730    2.0587   47.7085 H       1  ZINC000859202493    0.0700
      5 C5          3.1857    2.6139   48.5293 C.3     1  ZINC000859202493   -0.1600
      6 C6          2.4831    0.2910   47.9354 C.3     1  ZINC000859202493   -0.1200
      7 C7          1.1092   -0.3258   48.2055 C.3     1  ZINC000859202493    0.1600
      8 H8          0.5756    0.2816   48.9366 H       1  ZINC000859202493    0.1000
      9 C9          1.2855   -1.7439   48.7522 C.3     1  ZINC000859202493    0.0500
     10 O10         0.0729   -2.4782   48.5717 O.3     1  ZINC000859202493   -0.5700
     11 N11         0.3423   -0.3752   46.9584 N.am    1  ZINC000859202493   -1.1000
     12 S12        -1.2633    0.0306   46.9571 S.o2    1  ZINC000859202493    2.6900
     13 O13        -1.6760    0.0308   45.5973 O.2     1  ZINC000859202493   -0.9500
     14 O14        -1.8801   -0.7694   47.9564 O.2     1  ZINC000859202493   -0.9500
     15 C15        -1.3801    1.6987   47.5127 C.ar    1  ZINC000859202493   -0.6600
     16 C16        -1.1982    2.7383   46.6196 C.ar    1  ZINC000859202493   -0.0300
     17 C17        -1.2886    4.0490   47.0519 C.ar    1  ZINC000859202493   -0.1100
     18 C18        -1.5616    4.3231   48.3775 C.ar    1  ZINC000859202493   -0.0600
     19 C19        -1.7453    3.2809   49.2771 C.ar    1  ZINC000859202493    0.1200
     20 N20        -2.0225    3.5553   50.6209 N.am    1  ZINC000859202493   -0.6500
     21 C21        -1.0291    3.5356   51.5316 C.2     1  ZINC000859202493    0.4800
     22 O22         0.1051    3.2799   51.1863 O.2     1  ZINC000859202493   -0.4500
     23 C23        -1.3276    3.8311   52.9788 C.3     1  ZINC000859202493    0.4600
     24 F24        -0.4039    3.1646   53.7910 F       1  ZINC000859202493   -0.1500
     25 F25        -1.2357    5.2092   53.2019 F       1  ZINC000859202493   -0.1600
     26 F26        -2.6203    3.3940   53.2870 F       1  ZINC000859202493   -0.1600
     27 C27        -1.6590    1.9662   48.8389 C.ar    1  ZINC000859202493   -0.0300
     28 H28         2.6573    3.5932   44.6845 H       1  ZINC000859202493    0.0500
     29 H29         1.2657    3.5299   45.7924 H       1  ZINC000859202493    0.0500
     30 H30         2.8317    4.1525   46.3652 H       1  ZINC000859202493    0.0600
     31 H31         2.2687    1.2818   45.4940 H       1  ZINC000859202493    0.0600
     32 H32         3.8347    1.9045   46.0668 H       1  ZINC000859202493    0.0600
     33 H33         2.8762    2.4439   49.5605 H       1  ZINC000859202493    0.0500
     34 H34         4.2310    2.3277   48.4118 H       1  ZINC000859202493    0.0600
     35 H35         3.0683    3.6694   48.2840 H       1  ZINC000859202493    0.0600
     36 H36         2.9555   -0.2258   47.1000 H       1  ZINC000859202493    0.0800
     37 H37         3.1070    0.1917   48.8237 H       1  ZINC000859202493    0.0800
     38 H38         2.0946   -2.2415   48.2176 H       1  ZINC000859202493    0.0600
     39 H39         1.5268   -1.6966   49.8141 H       1  ZINC000859202493    0.0600
     40 H40        -0.6776   -2.1268   49.0698 H       1  ZINC000859202493    0.3800
     41 H41         0.7749   -0.6453   46.1333 H       1  ZINC000859202493    0.4200
     42 H42        -0.9846    2.5266   45.5825 H       1  ZINC000859202493    0.1500
     43 H43        -1.1453    4.8589   46.3520 H       1  ZINC000859202493    0.1400
     44 H44        -1.6317    5.3468   48.7145 H       1  ZINC000859202493    0.1400
     45 H45        -2.9296    3.7599   50.8971 H       1  ZINC000859202493    0.4200
     46 H46        -1.8014    1.1536   49.5359 H       1  ZINC000859202493    0.1500
@<TRIPOS>BOND
     1     1     2    1
     2     1    28    1
     3     1    29    1
     4     1    30    1
     5     2     3    1
     6     2    31    1
     7     2    32    1
     8     3     4    1
     9     3     5    1
    10     3     6    1
    11     5    33    1
    12     5    34    1
    13     5    35    1
    14     6     7    1
    15     6    36    1
    16     6    37    1
    17     7     8    1
    18     7     9    1
    19     7    11    1
    20     9    10    1
    21     9    38    1
    22     9    39    1
    23    10    40    1
    24    11    12   am
    25    11    41    1
    26    12    13    2
    27    12    14    2
    28    12    15    1
    29    15    27   ar
    30    15    16   ar
    31    16    17   ar
    32    16    42    1
    33    17    18   ar
    34    17    43    1
    35    18    19   ar
    36    18    44    1
    37    19    20    1
    38    19    27   ar
    39    20    21   am
    40    20    45    1
    41    21    22    2
    42    21    23    1
    43    23    24    1
    44    23    25    1
    45    23    26    1
    46    27    46    1
@<TRIPOS>SUBSTRUCTURE
     1 ZINC000859202493        1 TEMP              0 ****  ****    0 ROOT


##########                                Name:    ZINC000536173632
##########                DOCK_Rotatable_Bonds:                   7
##########                         Heavy_Atoms:                  29
##########                    Molecular_Weight:             407.389
##########                DOCK_Rotatable_Bonds:                   7
##########                       Formal_Charge:        -2.98023e-07
##########                     HBond_Acceptors:                   8
##########                        HBond_Donors:                   0
##########                         Heavy_Atoms:                  29
##########                          Grid_Score:          -29.875193
##########                     Grid_vdw_energy:          -29.355656
##########                      Grid_es_energy:           -0.519537
##########           Internal_energy_repulsive:           18.484884

@<TRIPOS>MOLECULE
ZINC000536173632
 49 51 1 0 0
SMALL
USER_CHARGES


@<TRIPOS>ATOM
      1 C1          5.7263    1.3474   47.7446 C.3     1  ZINC000536173632    0.0400
      2 O2          4.7166    1.3766   46.7015 O.3     1  ZINC000536173632   -0.3500
      3 C3          3.4935    0.9116   47.0210 C.2     1  ZINC000536173632    0.5100
      4 O4          3.2763    0.4928   48.1404 O.2     1  ZINC000536173632   -0.5000
      5 C5          2.4161    0.9110   46.0103 C.ar    1  ZINC000536173632   -0.1300
      6 C6          2.6625    1.3911   44.7227 C.ar    1  ZINC000536173632   -0.0600
      7 C7          1.6518    1.3877   43.7835 C.ar    1  ZINC000536173632   -0.1300
      8 C8          0.3964    0.9105   44.1155 C.ar    1  ZINC000536173632   -0.0700
      9 C9          0.1453    0.4333   45.3900 C.ar    1  ZINC000536173632   -0.0800
     10 C10        -1.2254   -0.0846   45.7424 C.3     1  ZINC000536173632   -0.1000
     11 C11        -1.5188    0.2153   47.1897 C.2     1  ZINC000536173632    0.5200
     12 O12        -1.4865   -0.6754   48.0123 O.2     1  ZINC000536173632   -0.5200
     13 N13        -1.8173    1.4733   47.5701 N.am    1  ZINC000536173632   -0.6200
     14 C14        -1.8627    2.5704   46.5904 C.3     1  ZINC000536173632    0.0700
     15 C15        -1.0100    3.7284   47.1213 C.3     1  ZINC000536173632    0.0500
     16 O16        -1.4255    4.0475   48.4515 O.3     1  ZINC000536173632   -0.3700
     17 C17        -1.2432    2.9865   49.3921 C.3     1  ZINC000536173632    0.1200
     18 H18        -0.1945    2.6896   49.4074 H       1  ZINC000536173632    0.0800
     19 C19        -1.6542    3.4542   50.7644 C.ar    1  ZINC000536173632   -0.0900
     20 C20        -2.9554    3.8584   50.9959 C.ar    1  ZINC000536173632   -0.0600
     21 C21        -3.3324    4.2875   52.2549 C.ar    1  ZINC000536173632   -0.1200
     22 C22        -2.4081    4.3119   53.2822 C.ar    1  ZINC000536173632   -0.0700
     23 C23        -1.1067    3.9067   53.0510 C.ar    1  ZINC000536173632   -0.1800
     24 C24        -0.0987    3.9337   54.1710 C.3     1  ZINC000536173632    0.5100
     25 F25        -0.7672    3.9844   55.3988 F       1  ZINC000536173632   -0.1800
     26 F26         0.6898    2.7793   54.1167 F       1  ZINC000536173632   -0.1800
     27 F27         0.7170    5.0623   54.0371 F       1  ZINC000536173632   -0.1800
     28 C28        -0.7309    3.4736   51.7934 C.ar    1  ZINC000536173632   -0.0500
     29 C29        -2.1134    1.7894   48.9765 C.3     1  ZINC000536173632    0.0900
     30 C30         1.1483    0.4251   46.3367 C.ar    1  ZINC000536173632   -0.0400
     31 H31         5.3944    1.9521   48.5885 H       1  ZINC000536173632    0.0600
     32 H32         5.8802    0.3193   48.0726 H       1  ZINC000536173632    0.0600
     33 H33         6.6621    1.7487   47.3558 H       1  ZINC000536173632    0.1000
     34 H34         3.6419    1.7645   44.4624 H       1  ZINC000536173632    0.1400
     35 H35         1.8411    1.7588   42.7870 H       1  ZINC000536173632    0.1400
     36 H36        -0.3914    0.9108   43.3767 H       1  ZINC000536173632    0.1300
     37 H37        -1.9704    0.4013   45.1123 H       1  ZINC000536173632    0.1100
     38 H38        -1.2594   -1.1620   45.5803 H       1  ZINC000536173632    0.1100
     39 H39        -1.4626    2.2272   45.6363 H       1  ZINC000536173632    0.1000
     40 H40        -2.8924    2.9028   46.4591 H       1  ZINC000536173632    0.0800
     41 H41         0.0396    3.4342   47.1284 H       1  ZINC000536173632    0.0600
     42 H42        -1.1402    4.6001   46.4802 H       1  ZINC000536173632    0.1100
     43 H43        -3.6776    3.8393   50.1932 H       1  ZINC000536173632    0.1400
     44 H44        -4.3490    4.6040   52.4356 H       1  ZINC000536173632    0.1400
     45 H45        -2.7024    4.6478   54.2656 H       1  ZINC000536173632    0.1400
     46 H46         0.2857    3.1570   51.6127 H       1  ZINC000536173632    0.1400
     47 H47        -3.1671    2.0456   49.0869 H       1  ZINC000536173632    0.0800
     48 H48        -1.8769    0.9288   49.6023 H       1  ZINC000536173632    0.1100
     49 H49         0.9512    0.0520   47.3308 H       1  ZINC000536173632    0.1400
@<TRIPOS>BOND
     1     1     2    1
     2     1    31    1
     3     1    32    1
     4     1    33    1
     5     2     3    1
     6     3     4    2
     7     3     5    1
     8     5    30   ar
     9     5     6   ar
    10     6     7   ar
    11     6    34    1
    12     7     8   ar
    13     7    35    1
    14     8     9   ar
    15     8    36    1
    16     9    10    1
    17     9    30   ar
    18    10    11    1
    19    10    37    1
    20    10    38    1
    21    11    12    2
    22    11    13   am
    23    13    29    1
    24    13    14    1
    25    14    15    1
    26    14    39    1
    27    14    40    1
    28    15    16    1
    29    15    41    1
    30    15    42    1
    31    16    17    1
    32    17    18    1
    33    17    19    1
    34    17    29    1
    35    19    28   ar
    36    19    20   ar
    37    20    21   ar
    38    20    43    1
    39    21    22   ar
    40    21    44    1
    41    22    23   ar
    42    22    45    1
    43    23    24    1
    44    23    28   ar
    45    24    25    1
    46    24    26    1
    47    24    27    1
    48    28    46    1
    49    29    47    1
    50    29    48    1
    51    30    49    1
@<TRIPOS>SUBSTRUCTURE
     1 ZINC000536173632        1 TEMP              0 ****  ****    0 ROOT


##########                                Name:    ZINC000952280524
##########                DOCK_Rotatable_Bonds:                   9
##########                         Heavy_Atoms:                  25
##########                    Molecular_Weight:             348.486
##########                DOCK_Rotatable_Bonds:                   9
##########                       Formal_Charge:          -0.0100004
##########                     HBond_Acceptors:                   5
##########                        HBond_Donors:                   1
##########                         Heavy_Atoms:                  25
##########                          Grid_Score:          -29.872618
##########                     Grid_vdw_energy:          -28.037914
##########                      Grid_es_energy:           -1.834703
##########           Internal_energy_repulsive:           22.237627

@<TRIPOS>MOLECULE
ZINC000952280524
 57 59 1 0 0
SMALL
USER_CHARGES


@<TRIPOS>ATOM
      1 C1        -13.1218   -1.0530   57.9129 C.3     1  ZINC000952280524   -0.1800
      2 C2        -12.4495   -2.4257   57.8461 C.3     1  ZINC000952280524    0.1400
      3 C3        -13.4109   -3.4909   58.3771 C.3     1  ZINC000952280524   -0.1900
      4 O4        -12.1096   -2.7242   56.4906 O.3     1  ZINC000952280524   -0.5500
      5 C5        -11.1797   -2.4138   58.6995 C.3     1  ZINC000952280524   -0.1200
      6 C6        -10.2472   -1.3416   58.1976 C.2     1  ZINC000952280524    0.5300
      7 O7        -10.1433   -1.1371   57.0066 O.2     1  ZINC000952280524   -0.5100
      8 N8         -9.5286   -0.6100   59.0721 N.am    1  ZINC000952280524   -0.6300
      9 C9         -8.5859    0.4623   58.7212 C.3     1  ZINC000952280524    0.1000
     10 C10        -7.9835    0.9924   60.0394 C.3     1  ZINC000952280524   -0.1300
     11 C11        -8.1965   -0.1914   61.0196 C.3     1  ZINC000952280524   -0.1000
     12 H12        -7.4075   -0.9356   60.9107 H       1  ZINC000952280524    0.0900
     13 C13        -8.2847    0.3025   62.4650 C.3     1  ZINC000952280524   -0.0700
     14 C14        -8.4180   -0.8967   63.4063 C.3     1  ZINC000952280524   -0.1300
     15 C15        -8.5409   -0.3970   64.8493 C.3     1  ZINC000952280524    0.1100
     16 N16        -7.3987    0.4786   65.1454 N.am    1  ZINC000952280524   -0.6100
     17 C17        -6.6162    0.2472   66.2181 C.2     1  ZINC000952280524    0.5500
     18 O18        -6.8525   -0.6935   66.9516 O.2     1  ZINC000952280524   -0.5500
     19 C19        -5.4762    1.1327   66.5014 C.2     1  ZINC000952280524   -0.2200
     20 C20        -4.2534    0.6241   66.6233 C.2     1  ZINC000952280524   -0.0300
     21 C21        -3.0852    1.5315   66.9118 C.3     1  ZINC000952280524   -0.1500
     22 C22        -1.6883    1.0195   66.5555 C.3     1  ZINC000952280524   -0.1700
     23 C23        -2.3365    2.1214   65.7150 C.3     1  ZINC000952280524   -0.1600
     24 C24        -7.1256    1.6107   64.2496 C.3     1  ZINC000952280524    0.1000
     25 C25        -7.0186    1.0885   62.8134 C.3     1  ZINC000952280524   -0.1300
     26 C26        -9.5625   -0.7480   60.5396 C.3     1  ZINC000952280524    0.1100
     27 H27       -13.4596   -0.8630   58.9317 H       1  ZINC000952280524    0.0700
     28 H28       -12.4080   -0.2840   57.6175 H       1  ZINC000952280524    0.0600
     29 H29       -13.9769   -1.0340   57.2372 H       1  ZINC000952280524    0.0600
     30 H30       -14.3155   -3.4994   57.7692 H       1  ZINC000952280524    0.0600
     31 H31       -12.9319   -4.4688   58.3296 H       1  ZINC000952280524    0.0800
     32 H32       -13.6702   -3.2632   59.4111 H       1  ZINC000952280524    0.0600
     33 H33       -11.5016   -2.0889   56.0885 H       1  ZINC000952280524    0.3700
     34 H34       -11.4417   -2.2104   59.7378 H       1  ZINC000952280524    0.1000
     35 H35       -10.6875   -3.3840   58.6322 H       1  ZINC000952280524    0.1000
     36 H36        -7.7945    0.0663   58.0848 H       1  ZINC000952280524    0.0700
     37 H37        -9.1128    1.2649   58.2052 H       1  ZINC000952280524    0.0700
     38 H38        -6.9217    1.2073   59.9192 H       1  ZINC000952280524    0.0800
     39 H39        -8.5210    1.8771   60.3807 H       1  ZINC000952280524    0.0800
     40 H40        -9.1553    0.9491   62.5753 H       1  ZINC000952280524    0.0800
     41 H41        -9.3073   -1.4691   63.1426 H       1  ZINC000952280524    0.0800
     42 H42        -7.5362   -1.5309   63.3148 H       1  ZINC000952280524    0.0700
     43 H43        -9.4695    0.1622   64.9645 H       1  ZINC000952280524    0.0700
     44 H44        -8.5365   -1.2467   65.5319 H       1  ZINC000952280524    0.0900
     45 H45        -5.6323    2.1957   66.6106 H       1  ZINC000952280524    0.1300
     46 H46        -4.0976   -0.4391   66.5155 H       1  ZINC000952280524    0.1300
     47 H47        -3.1818    2.1538   67.8015 H       1  ZINC000952280524    0.1200
     48 H48        -0.8654    1.3047   67.2108 H       1  ZINC000952280524    0.1000
     49 H49        -1.6141    0.0264   66.1124 H       1  ZINC000952280524    0.1000
     50 H50        -2.6888    1.8532   64.7189 H       1  ZINC000952280524    0.1000
     51 H51        -1.9401    3.1316   65.8174 H       1  ZINC000952280524    0.1000
     52 H52        -7.9387    2.3336   64.3159 H       1  ZINC000952280524    0.0700
     53 H53        -6.1874    2.0856   64.5365 H       1  ZINC000952280524    0.0900
     54 H54        -6.1500    0.4356   62.7274 H       1  ZINC000952280524    0.0700
     55 H55        -6.9118    1.9290   62.1277 H       1  ZINC000952280524    0.0800
     56 H56       -10.3799   -0.1636   60.9621 H       1  ZINC000952280524    0.0700
     57 H57        -9.6630   -1.7975   60.8163 H       1  ZINC000952280524    0.0800
@<TRIPOS>BOND
     1     1     2    1
     2     1    27    1
     3     1    28    1
     4     1    29    1
     5     2     3    1
     6     2     4    1
     7     2     5    1
     8     3    30    1
     9     3    31    1
    10     3    32    1
    11     4    33    1
    12     5     6    1
    13     5    34    1
    14     5    35    1
    15     6     7    2
    16     6     8   am
    17     8    26    1
    18     8     9    1
    19     9    10    1
    20     9    36    1
    21     9    37    1
    22    10    11    1
    23    10    38    1
    24    10    39    1
    25    11    12    1
    26    11    13    1
    27    11    26    1
    28    13    25    1
    29    13    14    1
    30    13    40    1
    31    14    15    1
    32    14    41    1
    33    14    42    1
    34    15    16    1
    35    15    43    1
    36    15    44    1
    37    16    17   am
    38    16    24    1
    39    17    18    2
    40    17    19    1
    41    19    20    2
    42    19    45    1
    43    20    21    1
    44    20    46    1
    45    21    23    1
    46    21    22    1
    47    21    47    1
    48    22    23    1
    49    22    48    1
    50    22    49    1
    51    23    50    1
    52    23    51    1
    53    24    25    1
    54    24    52    1
    55    24    53    1
    56    25    54    1
    57    25    55    1
    58    26    56    1
    59    26    57    1
@<TRIPOS>SUBSTRUCTURE
     1 ZINC000952280524        1 TEMP              0 ****  ****    0 ROOT


##########                                Name:    ZINC000938043669
##########                DOCK_Rotatable_Bonds:                   7
##########                         Heavy_Atoms:                  27
##########                    Molecular_Weight:             372.439
##########                DOCK_Rotatable_Bonds:                   7
##########                       Formal_Charge:           0.0499999
##########                     HBond_Acceptors:                   6
##########                        HBond_Donors:                   1
##########                         Heavy_Atoms:                  27
##########                          Grid_Score:          -29.856310
##########                     Grid_vdw_energy:          -27.902525
##########                      Grid_es_energy:           -1.953784
##########           Internal_energy_repulsive:           11.664237

@<TRIPOS>MOLECULE
ZINC000938043669
 52 55 1 0 0
SMALL
USER_CHARGES


@<TRIPOS>ATOM
      1 O1         -2.7412    6.2325   55.4894 O.2     1  ZINC000938043669   -0.5000
      2 C2         -2.3089    5.2448   54.9338 C.2     1  ZINC000938043669    0.5300
      3 C3         -1.5198    4.2257   55.7147 C.3     1  ZINC000938043669    0.0500
      4 O4         -0.1230    4.4413   55.5038 O.3     1  ZINC000938043669   -0.2800
      5 C5          0.6926    3.3595   55.6178 C.ar    1  ZINC000938043669    0.0900
      6 C6          1.4980    2.9819   54.5547 C.ar    1  ZINC000938043669   -0.1800
      7 C7          2.3269    1.8821   54.6729 C.ar    1  ZINC000938043669   -0.0900
      8 C8          2.3540    1.1580   55.8499 C.ar    1  ZINC000938043669   -0.1300
      9 C9          1.5518    1.5310   56.9129 C.ar    1  ZINC000938043669   -0.1100
     10 C10         0.7247    2.6338   56.8024 C.ar    1  ZINC000938043669    0.0800
     11 F11        -0.0589    2.9985   57.8406 F       1  ZINC000938043669   -0.1300
     12 N12        -2.5390    5.0559   53.6193 N.am    1  ZINC000938043669   -0.6200
     13 C13        -3.2907    5.9647   52.7417 C.3     1  ZINC000938043669    0.1000
     14 C14        -3.2704    5.3543   51.3246 C.3     1  ZINC000938043669   -0.1400
     15 C15        -2.0296    4.4236   51.3648 C.3     1  ZINC000938043669    0.1300
     16 H16        -1.1139    4.9853   51.1802 H       1  ZINC000938043669    0.1100
     17 N17        -2.1681    3.3220   50.4090 N.am    1  ZINC000938043669   -0.7200
     18 C18        -1.8448    3.5088   49.1140 C.2     1  ZINC000938043669    0.5200
     19 O19        -1.4377    4.5883   48.7402 O.2     1  ZINC000938043669   -0.5200
     20 C20        -1.9890    2.3761   48.1305 C.3     1  ZINC000938043669   -0.1000
     21 H21        -3.0465    2.1900   47.9437 H       1  ZINC000938043669    0.1000
     22 C22        -1.3435    1.1144   48.7078 C.3     1  ZINC000938043669   -0.1100
     23 C23        -0.2174    0.6428   47.7788 C.3     1  ZINC000938043669   -0.0600
     24 H24         0.2905   -0.2261   48.1974 H       1  ZINC000938043669    0.0800
     25 C25         0.7534    1.8003   47.5981 C.2     1  ZINC000938043669   -0.1800
     26 C26         0.1920    2.8976   47.0959 C.2     1  ZINC000938043669   -0.1300
     27 C27        -1.2956    2.7508   46.8143 C.3     1  ZINC000938043669   -0.0400
     28 H28        -1.7035    3.6729   46.4003 H       1  ZINC000938043669    0.0900
     29 C29        -1.4709    1.5873   45.8286 C.3     1  ZINC000938043669   -0.1200
     30 C30        -0.8287    0.3091   46.4109 C.3     1  ZINC000938043669   -0.1100
     31 C31        -2.0731    3.9066   52.8221 C.3     1  ZINC000938043669    0.1000
     32 H32        -1.7467    4.3260   56.7762 H       1  ZINC000938043669    0.1000
     33 H33        -1.7875    3.2238   55.3791 H       1  ZINC000938043669    0.1000
     34 H34         1.4776    3.5466   53.6343 H       1  ZINC000938043669    0.1400
     35 H35         2.9540    1.5879   53.8442 H       1  ZINC000938043669    0.1300
     36 H36         3.0026    0.2991   55.9394 H       1  ZINC000938043669    0.1400
     37 H37         1.5745    0.9632   57.8314 H       1  ZINC000938043669    0.1500
     38 H38        -4.3189    6.0529   53.0927 H       1  ZINC000938043669    0.0800
     39 H39        -2.8156    6.9457   52.7296 H       1  ZINC000938043669    0.0800
     40 H40        -4.1778    4.7793   51.1392 H       1  ZINC000938043669    0.0900
     41 H41        -3.1449    6.1321   50.5713 H       1  ZINC000938043669    0.1000
     42 H42        -2.4925    2.4582   50.7083 H       1  ZINC000938043669    0.4000
     43 H43        -0.9329    1.3349   49.6931 H       1  ZINC000938043669    0.0700
     44 H44        -2.0948    0.3296   48.7951 H       1  ZINC000938043669    0.0800
     45 H45         1.8009    1.7374   47.8535 H       1  ZINC000938043669    0.1200
     46 H46         0.7415    3.8079   46.9067 H       1  ZINC000938043669    0.1200
     47 H47        -2.5333    1.4084   45.6633 H       1  ZINC000938043669    0.0700
     48 H48        -0.9935    1.8388   44.8815 H       1  ZINC000938043669    0.0700
     49 H49        -0.0441   -0.0410   45.7401 H       1  ZINC000938043669    0.0700
     50 H50        -1.5893   -0.4645   46.5147 H       1  ZINC000938043669    0.0700
     51 H51        -1.0794    3.5952   53.1439 H       1  ZINC000938043669    0.0900
     52 H52        -2.7779    3.0798   52.9103 H       1  ZINC000938043669    0.0700
@<TRIPOS>BOND
     1     1     2    2
     2     2     3    1
     3     2    12   am
     4     3     4    1
     5     3    32    1
     6     3    33    1
     7     4     5    1
     8     5    10   ar
     9     5     6   ar
    10     6     7   ar
    11     6    34    1
    12     7     8   ar
    13     7    35    1
    14     8     9   ar
    15     8    36    1
    16     9    10   ar
    17     9    37    1
    18    10    11    1
    19    12    31    1
    20    12    13    1
    21    13    14    1
    22    13    38    1
    23    13    39    1
    24    14    15    1
    25    14    40    1
    26    14    41    1
    27    15    16    1
    28    15    17    1
    29    15    31    1
    30    17    18   am
    31    17    42    1
    32    18    19    2
    33    18    20    1
    34    20    21    1
    35    20    27    1
    36    20    22    1
    37    22    23    1
    38    22    43    1
    39    22    44    1
    40    23    24    1
    41    23    30    1
    42    23    25    1
    43    25    26    2
    44    25    45    1
    45    26    27    1
    46    26    46    1
    47    27    28    1
    48    27    29    1
    49    29    30    1
    50    29    47    1
    51    29    48    1
    52    30    49    1
    53    30    50    1
    54    31    51    1
    55    31    52    1
@<TRIPOS>SUBSTRUCTURE
     1 ZINC000938043669        1 TEMP              0 ****  ****    0 ROOT


##########                                Name:    ZINC000479580180
##########                DOCK_Rotatable_Bonds:                   5
##########                         Heavy_Atoms:                  30
##########                    Molecular_Weight:             404.444
##########                DOCK_Rotatable_Bonds:                   5
##########                       Formal_Charge:           0.0299995
##########                     HBond_Acceptors:                   7
##########                        HBond_Donors:                   1
##########                         Heavy_Atoms:                  30
##########                          Grid_Score:          -29.853682
##########                     Grid_vdw_energy:          -29.883474
##########                      Grid_es_energy:            0.029792
##########           Internal_energy_repulsive:           16.732027

@<TRIPOS>MOLECULE
ZINC000479580180
 51 55 1 0 0
SMALL
USER_CHARGES


@<TRIPOS>ATOM
      1 O1          1.1529    4.1743   47.5281 O.2     1  ZINC000479580180   -0.5200
      2 C2          0.0674    4.0630   48.0573 C.2     1  ZINC000479580180    0.5200
      3 C3         -1.0579    3.3725   47.3307 C.3     1  ZINC000479580180   -0.0700
      4 C4         -1.2226    1.9755   47.8714 C.2     1  ZINC000479580180   -0.1600
      5 C5         -2.3578    1.4073   48.2995 C.2     1  ZINC000479580180    0.0300
      6 O6         -2.1199    0.1493   48.7112 O.3     1  ZINC000479580180   -0.1900
      7 C7         -0.8162   -0.1639   48.5712 C.ar    1  ZINC000479580180    0.0800
      8 C8         -0.0732   -1.3056   48.8421 C.ar    1  ZINC000479580180   -0.1400
      9 C9          1.2830   -1.3193   48.5828 C.ar    1  ZINC000479580180    0.1300
     10 F10         2.0035   -2.4313   48.8468 F       1  ZINC000479580180   -0.1300
     11 C11         1.9137   -0.2009   48.0528 C.ar    1  ZINC000479580180   -0.1600
     12 C12         1.1984    0.9323   47.7800 C.ar    1  ZINC000479580180   -0.0400
     13 C13        -0.1725    0.9615   48.0290 C.ar    1  ZINC000479580180   -0.1200
     14 N14        -0.1311    4.5518   49.2976 N.am    1  ZINC000479580180   -0.6200
     15 C15        -1.4371    4.4139   49.9564 C.3     1  ZINC000479580180    0.1100
     16 C16        -1.2317    3.7581   51.3255 C.3     1  ZINC000479580180   -0.1300
     17 C17        -0.2065    4.5655   52.1250 C.3     1  ZINC000479580180   -0.0100
     18 C18        -0.0274    3.9426   53.4855 C.2     1  ZINC000479580180    0.3000
     19 N19         0.9439    3.1432   53.8394 N.2     1  ZINC000479580180   -0.5300
     20 C20         0.7886    2.7800   55.1196 C.2     1  ZINC000479580180    0.2700
     21 C21         1.6913    1.8796   55.8790 C.ar    1  ZINC000479580180   -0.0200
     22 C22         2.7892    1.2970   55.2492 C.ar    1  ZINC000479580180   -0.0800
     23 C23         3.6257    0.4607   55.9604 C.ar    1  ZINC000479580180   -0.1300
     24 C24         3.3757    0.2002   57.2956 C.ar    1  ZINC000479580180   -0.1000
     25 C25         2.2871    0.7759   57.9256 C.ar    1  ZINC000479580180   -0.1200
     26 C26         1.4474    1.6184   57.2256 C.ar    1  ZINC000479580180   -0.0800
     27 N27        -0.2960    3.3542   55.5919 N.2     1  ZINC000479580180   -0.3000
     28 N28        -0.8368    4.1186   54.5453 N.pl3   1  ZINC000479580180   -0.4800
     29 C29         1.1329    4.5677   51.3847 C.3     1  ZINC000479580180   -0.1400
     30 C30         0.9561    5.2275   50.0187 C.3     1  ZINC000479580180    0.1200
     31 H31        -1.9825    3.9306   47.4784 H       1  ZINC000479580180    0.1100
     32 H32        -0.8282    3.3253   46.2662 H       1  ZINC000479580180    0.1100
     33 H33        -3.3240    1.8896   48.3122 H       1  ZINC000479580180    0.2100
     34 H34        -0.5548   -2.1799   49.2546 H       1  ZINC000479580180    0.1500
     35 H35         2.9751   -0.2264   47.8551 H       1  ZINC000479580180    0.1400
     36 H36         1.6932    1.7997   47.3685 H       1  ZINC000479580180    0.1300
     37 H37        -1.8864    5.3984   50.0865 H       1  ZINC000479580180    0.0800
     38 H38        -2.0900    3.7897   49.3464 H       1  ZINC000479580180    0.0900
     39 H39        -2.1789    3.7373   51.8646 H       1  ZINC000479580180    0.0900
     40 H40        -0.8673    2.7397   51.1901 H       1  ZINC000479580180    0.0700
     41 H41        -0.5602    5.5903   52.2386 H       1  ZINC000479580180    0.1200
     42 H42         2.9850    1.4991   54.2066 H       1  ZINC000479580180    0.1400
     43 H43         4.4770    0.0085   55.4733 H       1  ZINC000479580180    0.1300
     44 H44         4.0324   -0.4554   57.8481 H       1  ZINC000479580180    0.1300
     45 H45         2.0962    0.5689   58.9683 H       1  ZINC000479580180    0.1300
     46 H46         0.5979    2.0676   57.7186 H       1  ZINC000479580180    0.1300
     47 H47        -1.6396    4.6620   54.5784 H       1  ZINC000479580180    0.4400
     48 H48         1.8688    5.1233   51.9660 H       1  ZINC000479580180    0.0900
     49 H49         1.4752    3.5419   51.2488 H       1  ZINC000479580180    0.0700
     50 H50         1.8819    5.1427   49.4495 H       1  ZINC000479580180    0.1000
     51 H51         0.7011    6.2789   50.1509 H       1  ZINC000479580180    0.0800
@<TRIPOS>BOND
     1     1     2    2
     2     2     3    1
     3     2    14   am
     4     3     4    1
     5     3    31    1
     6     3    32    1
     7     4    13    1
     8     4     5    2
     9     5     6    1
    10     5    33    1
    11     6     7    1
    12     7    13   ar
    13     7     8   ar
    14     8     9   ar
    15     8    34    1
    16     9    10    1
    17     9    11   ar
    18    11    12   ar
    19    11    35    1
    20    12    13   ar
    21    12    36    1
    22    14    30    1
    23    14    15    1
    24    15    16    1
    25    15    37    1
    26    15    38    1
    27    16    17    1
    28    16    39    1
    29    16    40    1
    30    17    18    1
    31    17    29    1
    32    17    41    1
    33    18    28    1
    34    18    19    2
    35    19    20    1
    36    20    21    1
    37    20    27    2
    38    21    26   ar
    39    21    22   ar
    40    22    23   ar
    41    22    42    1
    42    23    24   ar
    43    23    43    1
    44    24    25   ar
    45    24    44    1
    46    25    26   ar
    47    25    45    1
    48    26    46    1
    49    27    28    1
    50    28    47    1
    51    29    30    1
    52    29    48    1
    53    29    49    1
    54    30    50    1
    55    30    51    1
@<TRIPOS>SUBSTRUCTURE
     1 ZINC000479580180        1 TEMP              0 ****  ****    0 ROOT


##########                                Name:    ZINC001296589646
##########                DOCK_Rotatable_Bonds:                   8
##########                         Heavy_Atoms:                  29
##########                    Molecular_Weight:             398.548
##########                DOCK_Rotatable_Bonds:                   8
##########                       Formal_Charge:          -0.0200008
##########                     HBond_Acceptors:                   6
##########                        HBond_Donors:                   0
##########                         Heavy_Atoms:                  29
##########                          Grid_Score:          -29.846895
##########                     Grid_vdw_energy:          -29.118742
##########                      Grid_es_energy:           -0.728153
##########           Internal_energy_repulsive:           20.559553

@<TRIPOS>MOLECULE
ZINC001296589646
 63 66 1 0 0
SMALL
USER_CHARGES


@<TRIPOS>ATOM
      1 C1        -13.0646   -5.0585   57.0773 C.3     1  ZINC001296589646   -0.1500
      2 C2        -14.3363   -4.5357   57.7485 C.3     1  ZINC001296589646    0.0500
      3 O3        -13.9885   -3.8172   58.9338 O.3     1  ZINC001296589646   -0.3600
      4 C4        -14.4337   -2.4594   58.9421 C.3     1  ZINC001296589646    0.1800
      5 C5        -13.7868   -1.6786   57.8272 C.2     1  ZINC001296589646    0.1500
      6 N6        -14.4020   -1.0647   56.8565 N.2     1  ZINC001296589646   -0.2600
      7 N7        -13.5472   -0.4989   56.0811 N.2     1  ZINC001296589646   -0.3200
      8 C8        -12.3309   -0.7234   56.5192 C.2     1  ZINC001296589646    0.3600
      9 N9        -11.1524   -0.2740   55.9450 N.3     1  ZINC001296589646   -0.4300
     10 C10       -10.8111   -1.0695   54.7380 C.3     1  ZINC001296589646    0.0300
     11 C11        -9.8375   -0.1434   53.9666 C.3     1  ZINC001296589646   -0.1200
     12 C12       -10.4336    1.2625   54.2078 C.3     1  ZINC001296589646   -0.1000
     13 H13       -11.0571    1.5589   53.3644 H       1  ZINC001296589646    0.0800
     14 C14        -9.3150    2.2835   54.4248 C.3     1  ZINC001296589646   -0.1400
     15 C15       -11.2881    1.1240   55.4815 C.3     1  ZINC001296589646    0.0500
     16 N16       -12.4459   -1.4780   57.6502 N.pl3   1  ZINC001296589646   -0.4600
     17 C17       -11.3579   -1.9781   58.4943 C.3     1  ZINC001296589646    0.1000
     18 C18       -10.8878   -0.8651   59.4330 C.3     1  ZINC001296589646   -0.1300
     19 C19        -9.3826   -1.0008   59.6712 C.3     1  ZINC001296589646   -0.0500
     20 H20        -9.0911   -2.0459   59.5681 H       1  ZINC001296589646    0.0800
     21 C21        -8.6255   -0.1564   58.6442 C.3     1  ZINC001296589646   -0.1500
     22 C22        -9.0487   -0.5210   61.0602 C.ar    1  ZINC001296589646   -0.0800
     23 C23        -9.7083    0.5718   61.5912 C.ar    1  ZINC001296589646   -0.1100
     24 C24        -9.4020    1.0119   62.8653 C.ar    1  ZINC001296589646   -0.1200
     25 C25        -8.4364    0.3591   63.6086 C.ar    1  ZINC001296589646   -0.1200
     26 C26        -7.7775   -0.7341   63.0780 C.ar    1  ZINC001296589646   -0.1200
     27 C27        -8.0868   -1.1769   61.8055 C.ar    1  ZINC001296589646   -0.1200
     28 C28       -14.1590   -1.7960   60.3192 C.3     1  ZINC001296589646   -0.1400
     29 C29       -15.4040   -2.2540   61.1199 C.3     1  ZINC001296589646    0.0600
     30 O30       -16.4846   -2.2393   60.1737 O.3     1  ZINC001296589646   -0.3700
     31 C31       -15.9726   -2.3852   58.8439 C.3     1  ZINC001296589646    0.0400
     32 H32       -12.4605   -4.2170   56.7383 H       1  ZINC001296589646    0.0600
     33 H33       -12.4937   -5.6510   57.7923 H       1  ZINC001296589646    0.0700
     34 H34       -13.3337   -5.6800   56.2232 H       1  ZINC001296589646    0.0700
     35 H35       -14.8626   -3.8719   57.0626 H       1  ZINC001296589646    0.0500
     36 H36       -14.9813   -5.3750   58.0085 H       1  ZINC001296589646    0.0600
     37 H37       -10.3169   -1.9999   55.0176 H       1  ZINC001296589646    0.0900
     38 H38       -11.7031   -1.2698   54.1444 H       1  ZINC001296589646    0.0600
     39 H39        -8.8313   -0.2118   54.3798 H       1  ZINC001296589646    0.0800
     40 H40        -9.8364   -0.3847   52.9036 H       1  ZINC001296589646    0.0800
     41 H41        -8.6906    2.3335   53.5326 H       1  ZINC001296589646    0.0600
     42 H42        -9.7503    3.2637   54.6189 H       1  ZINC001296589646    0.0600
     43 H43        -8.7069    1.9807   55.2772 H       1  ZINC001296589646    0.0600
     44 H44       -12.3319    1.3400   55.2536 H       1  ZINC001296589646    0.0800
     45 H45       -10.9238    1.8067   56.2491 H       1  ZINC001296589646    0.0900
     46 H46       -11.7138   -2.8237   59.0828 H       1  ZINC001296589646    0.1100
     47 H47       -10.5272   -2.2975   57.8649 H       1  ZINC001296589646    0.1000
     48 H48       -11.0983    0.1043   58.9812 H       1  ZINC001296589646    0.0800
     49 H49       -11.4149   -0.9450   60.3837 H       1  ZINC001296589646    0.0700
     50 H50        -7.5532   -0.2530   58.8140 H       1  ZINC001296589646    0.0600
     51 H51        -8.8671   -0.5035   57.6396 H       1  ZINC001296589646    0.0600
     52 H52        -8.9170    0.8888   58.7474 H       1  ZINC001296589646    0.0600
     53 H53       -10.4627    1.0818   61.0105 H       1  ZINC001296589646    0.1200
     54 H54        -9.9168    1.8660   63.2799 H       1  ZINC001296589646    0.1200
     55 H55        -8.1967    0.7034   64.6038 H       1  ZINC001296589646    0.1200
     56 H56        -7.0229   -1.2438   63.6586 H       1  ZINC001296589646    0.1200
     57 H57        -7.5720   -2.0310   61.3909 H       1  ZINC001296589646    0.1200
     58 H58       -13.2418   -2.1813   60.7649 H       1  ZINC001296589646    0.1000
     59 H59       -14.1252   -0.7100   60.2325 H       1  ZINC001296589646    0.1000
     60 H60       -15.2546   -3.2615   61.5081 H       1  ZINC001296589646    0.0700
     61 H61       -15.6057   -1.5595   61.9354 H       1  ZINC001296589646    0.0900
     62 H62       -16.2636   -1.5262   58.2394 H       1  ZINC001296589646    0.1000
     63 H63       -16.3592   -3.3012   58.3973 H       1  ZINC001296589646    0.0800
@<TRIPOS>BOND
     1     1     2    1
     2     1    32    1
     3     1    33    1
     4     1    34    1
     5     2     3    1
     6     2    35    1
     7     2    36    1
     8     3     4    1
     9     4    31    1
    10     4     5    1
    11     4    28    1
    12     5    16    1
    13     5     6    2
    14     6     7    1
    15     7     8    2
    16     8     9    1
    17     8    16    1
    18     9    15    1
    19     9    10    1
    20    10    11    1
    21    10    37    1
    22    10    38    1
    23    11    12    1
    24    11    39    1
    25    11    40    1
    26    12    13    1
    27    12    14    1
    28    12    15    1
    29    14    41    1
    30    14    42    1
    31    14    43    1
    32    15    44    1
    33    15    45    1
    34    16    17    1
    35    17    18    1
    36    17    46    1
    37    17    47    1
    38    18    19    1
    39    18    48    1
    40    18    49    1
    41    19    20    1
    42    19    21    1
    43    19    22    1
    44    21    50    1
    45    21    51    1
    46    21    52    1
    47    22    27   ar
    48    22    23   ar
    49    23    24   ar
    50    23    53    1
    51    24    25   ar
    52    24    54    1
    53    25    26   ar
    54    25    55    1
    55    26    27   ar
    56    26    56    1
    57    27    57    1
    58    28    29    1
    59    28    58    1
    60    28    59    1
    61    29    30    1
    62    29    60    1
    63    29    61    1
    64    30    31    1
    65    31    62    1
    66    31    63    1
@<TRIPOS>SUBSTRUCTURE
     1 ZINC001296589646        1 TEMP              0 ****  ****    0 ROOT


##########                                Name:    ZINC001009984555
##########                DOCK_Rotatable_Bonds:                   7
##########                         Heavy_Atoms:                  23
##########                    Molecular_Weight:             338.446
##########                DOCK_Rotatable_Bonds:                   7
##########                       Formal_Charge:           0.0400002
##########                     HBond_Acceptors:                   6
##########                        HBond_Donors:                   1
##########                         Heavy_Atoms:                  23
##########                          Grid_Score:          -29.846809
##########                     Grid_vdw_energy:          -28.331223
##########                      Grid_es_energy:           -1.515586
##########           Internal_energy_repulsive:           15.834528

@<TRIPOS>MOLECULE
ZINC001009984555
 46 47 1 0 0
SMALL
USER_CHARGES


@<TRIPOS>ATOM
      1 C1          1.4059    1.7631   43.5923 C.3     1  ZINC001009984555   -0.1400
      2 S2          0.1835    0.4407   43.3738 S.3     1  ZINC001009984555   -0.1800
      3 C3         -0.4523    0.1911   45.0542 C.3     1  ZINC001009984555   -0.1300
      4 C4         -1.1506    1.4433   45.5183 C.2     1  ZINC001009984555    0.5500
      5 O5         -1.6674    2.1846   44.7094 O.2     1  ZINC001009984555   -0.5100
      6 N6         -1.2010    1.7393   46.8322 N.am    1  ZINC001009984555   -0.6100
      7 C7         -1.8553    2.9214   47.4221 C.3     1  ZINC001009984555    0.1000
      8 C8         -2.1826    2.5078   48.8786 C.3     1  ZINC001009984555   -0.1100
      9 H9         -3.0965    1.9153   48.9206 H       1  ZINC001009984555    0.1000
     10 C10        -2.2858    3.7347   49.7870 C.3     1  ZINC001009984555    0.1300
     11 N11        -2.1914    3.3148   51.1874 N.am    1  ZINC001009984555   -0.7300
     12 C12        -1.7240    4.1708   52.1176 C.2     1  ZINC001009984555    0.5600
     13 O13        -1.3819    5.2916   51.7948 O.2     1  ZINC001009984555   -0.5200
     14 C14        -1.6272    3.7464   53.5306 C.ar    1  ZINC001009984555   -0.1200
     15 C15        -2.6859    3.9854   54.4079 C.ar    1  ZINC001009984555   -0.0900
     16 C16        -2.5905    3.5874   55.7257 C.ar    1  ZINC001009984555   -0.1000
     17 C17        -1.4485    2.9528   56.1792 C.ar    1  ZINC001009984555   -0.1200
     18 C18        -0.3929    2.7119   55.3142 C.ar    1  ZINC001009984555    0.0900
     19 F19         0.7198    2.0914   55.7640 F       1  ZINC001009984555   -0.1300
     20 C20        -0.4791    3.1001   53.9909 C.ar    1  ZINC001009984555   -0.0500
     21 C21         0.6689    2.8380   53.0504 C.3     1  ZINC001009984555   -0.1200
     22 C22        -0.9444    1.6471   49.2438 C.3     1  ZINC001009984555   -0.1200
     23 C23        -0.6181    0.9336   47.9150 C.3     1  ZINC001009984555    0.1400
     24 H24         0.4622    0.8710   47.7834 H       1  ZINC001009984555    0.0800
     25 C25        -1.2240   -0.4712   47.9162 C.3     1  ZINC001009984555   -0.1700
     26 H26         2.1777    1.4331   44.2874 H       1  ZINC001009984555    0.0800
     27 H27         1.8605    2.0001   42.6304 H       1  ZINC001009984555    0.1100
     28 H28         0.9138    2.6505   43.9901 H       1  ZINC001009984555    0.0800
     29 H29        -1.1574   -0.6401   45.0562 H       1  ZINC001009984555    0.1100
     30 H30         0.3758   -0.0334   45.7265 H       1  ZINC001009984555    0.1100
     31 H31        -1.1768    3.7745   47.4133 H       1  ZINC001009984555    0.0800
     32 H32        -2.7709    3.1582   46.8801 H       1  ZINC001009984555    0.0800
     33 H33        -1.4733    4.4249   49.5592 H       1  ZINC001009984555    0.0800
     34 H34        -3.2417    4.2311   49.6201 H       1  ZINC001009984555    0.0800
     35 H35        -2.4656    2.4207   51.4451 H       1  ZINC001009984555    0.4000
     36 H36        -3.5783    4.4816   54.0560 H       1  ZINC001009984555    0.1300
     37 H37        -3.4097    3.7723   56.4047 H       1  ZINC001009984555    0.1400
     38 H38        -1.3789    2.6440   57.2119 H       1  ZINC001009984555    0.1400
     39 H39         0.4791    1.9212   52.4922 H       1  ZINC001009984555    0.0800
     40 H40         0.7675    3.6724   52.3560 H       1  ZINC001009984555    0.1000
     41 H41         1.5903    2.7308   53.6227 H       1  ZINC001009984555    0.0600
     42 H42        -0.1148    2.2795   49.5601 H       1  ZINC001009984555    0.0900
     43 H43        -1.1941    0.9211   50.0176 H       1  ZINC001009984555    0.0900
     44 H44        -2.3058   -0.4002   48.0301 H       1  ZINC001009984555    0.0600
     45 H45        -0.9897   -0.9688   46.9753 H       1  ZINC001009984555    0.0700
     46 H46        -0.8086   -1.0455   48.7443 H       1  ZINC001009984555    0.0700
@<TRIPOS>BOND
     1     1     2    1
     2     1    26    1
     3     1    27    1
     4     1    28    1
     5     2     3    1
     6     3     4    1
     7     3    29    1
     8     3    30    1
     9     4     5    2
    10     4     6   am
    11     6    23    1
    12     6     7    1
    13     7     8    1
    14     7    31    1
    15     7    32    1
    16     8     9    1
    17     8    10    1
    18     8    22    1
    19    10    11    1
    20    10    33    1
    21    10    34    1
    22    11    12   am
    23    11    35    1
    24    12    13    2
    25    12    14    1
    26    14    20   ar
    27    14    15   ar
    28    15    16   ar
    29    15    36    1
    30    16    17   ar
    31    16    37    1
    32    17    18   ar
    33    17    38    1
    34    18    19    1
    35    18    20   ar
    36    20    21    1
    37    21    39    1
    38    21    40    1
    39    21    41    1
    40    22    23    1
    41    22    42    1
    42    22    43    1
    43    23    24    1
    44    23    25    1
    45    25    44    1
    46    25    45    1
    47    25    46    1
@<TRIPOS>SUBSTRUCTURE
     1 ZINC001009984555        1 TEMP              0 ****  ****    0 ROOT


##########                                Name:    ZINC000013551438
##########                DOCK_Rotatable_Bonds:                   5
##########                         Heavy_Atoms:                  27
##########                    Molecular_Weight:             377.467
##########                DOCK_Rotatable_Bonds:                   5
##########                       Formal_Charge:          -0.0300005
##########                     HBond_Acceptors:                   6
##########                        HBond_Donors:                   1
##########                         Heavy_Atoms:                  27
##########                          Grid_Score:          -29.834307
##########                     Grid_vdw_energy:          -28.747202
##########                      Grid_es_energy:           -1.087105
##########           Internal_energy_repulsive:           10.733685

@<TRIPOS>MOLECULE
ZINC000013551438
 46 49 1 0 0
SMALL
USER_CHARGES


@<TRIPOS>ATOM
      1 C1         -8.9943   -0.7300   52.2423 C.3     1  <0>         0.0300
      2 O2        -10.1266   -1.0390   53.0575 O.3     1  <0>        -0.3200
      3 C3         -9.9817   -0.8817   54.4005 C.ar    1  <0>         0.1000
      4 C4        -10.7560   -1.6390   55.2751 C.ar    1  <0>        -0.1800
      5 C5        -10.6214   -1.4915   56.6377 C.ar    1  <0>        -0.0900
      6 C6         -9.7052   -0.5797   57.1516 C.ar    1  <0>         0.0700
      7 C7         -8.9223    0.1853   56.2703 C.ar    1  <0>        -0.0400
      8 C8         -9.0626    0.0247   54.8922 C.ar    1  <0>        -0.1100
      9 C9         -8.0714    1.0374   57.1161 C.2     1  <0>        -0.1200
     10 C10        -7.0682    2.0261   56.6504 C.2     1  <0>         0.1700
     11 C11        -7.3943    3.1153   55.9294 C.2     1  <0>        -0.3000
     12 S12        -5.9142    4.0088   55.5920 S.3     1  <0>         0.2500
     13 C13        -4.9992    2.8444   56.4452 C.2     1  <0>         0.2400
     14 N14        -3.6223    2.8902   56.6178 N.am    1  <0>        -0.6200
     15 C15        -2.8050    2.7578   55.5544 C.2     1  <0>         0.5600
     16 O16        -3.2734    2.5998   54.4438 O.2     1  <0>        -0.5000
     17 C17        -1.3393    2.8048   55.7384 C.ar    1  <0>        -0.1400
     18 C18        -0.7974    2.9422   57.0176 C.ar    1  <0>        -0.0800
     19 C19         0.5716    2.9849   57.1825 C.ar    1  <0>        -0.1300
     20 C20         1.4070    2.8919   56.0834 C.ar    1  <0>        -0.0800
     21 C21         0.8765    2.7561   54.8128 C.ar    1  <0>        -0.1300
     22 C22        -0.4906    2.7062   54.6345 C.ar    1  <0>        -0.0500
     23 N23        -5.7721    1.9168   56.9132 N.2     1  <0>        -0.5000
     24 C24        -8.3814    0.7452   58.4016 C.2     1  <0>         0.1300
     25 C25        -7.7511    1.3841   59.6123 C.3     1  <0>        -0.0900
     26 N26        -9.3534   -0.2166   58.4353 N.pl3   1  <0>        -0.4800
     27 C27        -9.9364   -0.7785   59.6562 C.3     1  <0>         0.0800
     28 H28        -8.1584   -1.3704   52.5236 H       1  <0>         0.0500
     29 H29        -9.2443   -0.8980   51.1947 H       1  <0>         0.1000
     30 H30        -8.7168    0.3141   52.3867 H       1  <0>         0.0500
     31 H31       -11.4692   -2.3481   54.8813 H       1  <0>         0.1300
     32 H32       -11.2275   -2.0838   57.3074 H       1  <0>         0.1200
     33 H33        -8.4620    0.6116   54.2131 H       1  <0>         0.1300
     34 H34        -8.3890    3.3926   55.6132 H       1  <0>         0.1800
     35 H35        -3.2485    3.0175   57.5038 H       1  <0>         0.4200
     36 H36        -1.4484    3.0153   57.8762 H       1  <0>         0.1300
     37 H37         0.9921    3.0916   58.1714 H       1  <0>         0.1300
     38 H38         2.4781    2.9259   56.2180 H       1  <0>         0.1300
     39 H39         1.5342    2.6844   53.9591 H       1  <0>         0.1300
     40 H40        -0.9034    2.5998   53.6422 H       1  <0>         0.1400
     41 H41        -8.3719    2.2142   59.9496 H       1  <0>         0.0800
     42 H42        -7.6666    0.6461   60.4099 H       1  <0>         0.0700
     43 H43        -6.7592    1.7541   59.3529 H       1  <0>         0.0800
     44 H44       -10.8040   -0.1875   59.9499 H       1  <0>         0.0700
     45 H45       -10.2436   -1.8079   59.4718 H       1  <0>         0.0800
     46 H46        -9.1955   -0.7580   60.4554 H       1  <0>         0.0800
@<TRIPOS>BOND
     1     1     2    1
     2     1    28    1
     3     1    29    1
     4     1    30    1
     5     2     3    1
     6     3     8   ar
     7     3     4   ar
     8     4     5   ar
     9     4    31    1
    10     5     6   ar
    11     5    32    1
    12     6    26    1
    13     6     7   ar
    14     7     8   ar
    15     7     9    1
    16     8    33    1
    17     9    10    1
    18     9    24    2
    19    10    23    1
    20    10    11    2
    21    11    12    1
    22    11    34    1
    23    12    13    1
    24    13    14    1
    25    13    23    2
    26    14    15   am
    27    14    35    1
    28    15    16    2
    29    15    17    1
    30    17    22   ar
    31    17    18   ar
    32    18    19   ar
    33    18    36    1
    34    19    20   ar
    35    19    37    1
    36    20    21   ar
    37    20    38    1
    38    21    22   ar
    39    21    39    1
    40    22    40    1
    41    24    25    1
    42    24    26    1
    43    25    41    1
    44    25    42    1
    45    25    43    1
    46    26    27    1
    47    27    44    1
    48    27    45    1
    49    27    46    1
@<TRIPOS>SUBSTRUCTURE
     1 <0>         1 TEMP              0 ****  ****    0 ROOT


##########                                Name:    ZINC000433533595
##########                DOCK_Rotatable_Bonds:                  10
##########                         Heavy_Atoms:                  24
##########                    Molecular_Weight:             397.312
##########                DOCK_Rotatable_Bonds:                  10
##########                       Formal_Charge:          0.00999916
##########                     HBond_Acceptors:                   5
##########                        HBond_Donors:                   1
##########                         Heavy_Atoms:                  24
##########                          Grid_Score:          -29.801783
##########                     Grid_vdw_energy:          -28.517302
##########                      Grid_es_energy:           -1.284481
##########           Internal_energy_repulsive:           19.106558

@<TRIPOS>MOLECULE
ZINC000433533595
 49 50 1 0 0
SMALL
USER_CHARGES


@<TRIPOS>ATOM
      1 C1        -11.3380   -1.4928   55.2410 C.3     1  ZINC000433533595   -0.1500
      2 C2        -11.7588   -2.5145   56.2993 C.3     1  ZINC000433533595   -0.1200
      3 C3        -11.3577   -2.0074   57.6859 C.3     1  ZINC000433533595   -0.1300
      4 C4        -11.7767   -3.0300   58.7439 C.3     1  ZINC000433533595    0.1000
      5 N5        -13.0202   -2.5909   59.3820 N.am    1  ZINC000433533595   -0.5500
      6 C6        -12.9912   -2.0607   60.6208 C.2     1  ZINC000433533595    0.5100
      7 O7        -14.0213   -1.6969   61.1493 O.2     1  ZINC000433533595   -0.5100
      8 C8        -11.6916   -1.9207   61.3429 C.2     1  ZINC000433533595    0.5000
      9 O9        -11.1766   -2.8911   61.8592 O.2     1  ZINC000433533595   -0.4900
     10 N10       -11.0905   -0.7170   61.4213 N.am    1  ZINC000433533595   -0.6300
     11 C11        -9.8732   -0.5858   62.0976 C.ar    1  ZINC000433533595    0.1200
     12 C12        -9.8491   -0.5411   63.4842 C.ar    1  ZINC000433533595   -0.0600
     13 C13        -8.6441   -0.4114   64.1503 C.ar    1  ZINC000433533595   -0.1100
     14 Br14       -8.6128   -0.3511   66.0401 Br      1  ZINC000433533595   -0.0400
     15 C15        -7.4617   -0.3261   63.4374 C.ar    1  ZINC000433533595   -0.0600
     16 C16        -7.4783   -0.3701   62.0554 C.ar    1  ZINC000433533595   -0.1900
     17 C17        -8.6804   -0.5056   61.3807 C.ar    1  ZINC000433533595    0.1300
     18 O18        -8.6978   -0.5489   60.0217 O.3     1  ZINC000433533595   -0.3100
     19 C19        -9.0684    0.6505   59.3390 C.3     1  ZINC000433533595    0.0800
     20 C20        -8.5129    1.8596   60.0942 C.3     1  ZINC000433533595   -0.1500
     21 C21        -8.4952    0.6278   57.9206 C.3     1  ZINC000433533595   -0.1800
     22 C22       -14.2952   -2.7283   58.6736 C.3     1  ZINC000433533595    0.0600
     23 C23       -14.6091   -4.0854   58.0408 C.3     1  ZINC000433533595   -0.1900
     24 C24       -15.3561   -3.6366   59.2983 C.3     1  ZINC000433533595   -0.1800
     25 H25       -10.2574   -1.3547   55.2788 H       1  ZINC000433533595    0.0500
     26 H26       -11.6238   -1.8542   54.2532 H       1  ZINC000433533595    0.0500
     27 H27       -11.8330   -0.5417   55.4373 H       1  ZINC000433533595    0.0500
     28 H28       -12.8394   -2.6527   56.2615 H       1  ZINC000433533595    0.0700
     29 H29       -11.2639   -3.4657   56.1031 H       1  ZINC000433533595    0.0600
     30 H30       -10.2773   -1.8679   57.7232 H       1  ZINC000433533595    0.0600
     31 H31       -11.8537   -1.0570   57.8827 H       1  ZINC000433533595    0.0700
     32 H32       -11.9339   -3.9991   58.2704 H       1  ZINC000433533595    0.1100
     33 H33       -10.9929   -3.1162   59.4964 H       1  ZINC000433533595    0.0800
     34 H34       -11.5021    0.0585   61.0088 H       1  ZINC000433533595    0.4300
     35 H35       -10.7709   -0.6071   64.0430 H       1  ZINC000433533595    0.1600
     36 H36        -6.5230   -0.2246   63.9617 H       1  ZINC000433533595    0.1400
     37 H37        -6.5533   -0.3032   61.5020 H       1  ZINC000433533595    0.1500
     38 H38       -10.1551    0.7200   59.2906 H       1  ZINC000433533595    0.0800
     39 H39        -7.4263    1.7900   60.1426 H       1  ZINC000433533595    0.0700
     40 H40        -8.7956    2.7745   59.5735 H       1  ZINC000433533595    0.0800
     41 H41        -8.9213    1.8758   61.1048 H       1  ZINC000433533595    0.0700
     42 H42        -7.4085    0.5582   57.9690 H       1  ZINC000433533595    0.0700
     43 H43        -8.8909   -0.2336   57.3826 H       1  ZINC000433533595    0.0600
     44 H44        -8.7778    1.5427   57.3999 H       1  ZINC000433533595    0.0800
     45 H45       -14.6408   -1.8367   58.1505 H       1  ZINC000433533595    0.1400
     46 H46       -15.1611   -4.0868   57.1010 H       1  ZINC000433533595    0.0900
     47 H47       -13.8670   -4.8761   58.1516 H       1  ZINC000433533595    0.1400
     48 H48       -15.1055   -4.1320   60.2363 H       1  ZINC000433533595    0.1000
     49 H49       -16.3997   -3.3428   59.1857 H       1  ZINC000433533595    0.1000
@<TRIPOS>BOND
     1     1     2    1
     2     1    25    1
     3     1    26    1
     4     1    27    1
     5     2     3    1
     6     2    28    1
     7     2    29    1
     8     3     4    1
     9     3    30    1
    10     3    31    1
    11     4     5    1
    12     4    32    1
    13     4    33    1
    14     5     6   am
    15     5    22    1
    16     6     7    2
    17     6     8    1
    18     8     9    2
    19     8    10   am
    20    10    11    1
    21    10    34    1
    22    11    17   ar
    23    11    12   ar
    24    12    13   ar
    25    12    35    1
    26    13    14    1
    27    13    15   ar
    28    15    16   ar
    29    15    36    1
    30    16    17   ar
    31    16    37    1
    32    17    18    1
    33    18    19    1
    34    19    20    1
    35    19    21    1
    36    19    38    1
    37    20    39    1
    38    20    40    1
    39    20    41    1
    40    21    42    1
    41    21    43    1
    42    21    44    1
    43    22    24    1
    44    22    23    1
    45    22    45    1
    46    23    24    1
    47    23    46    1
    48    23    47    1
    49    24    48    1
    50    24    49    1
@<TRIPOS>SUBSTRUCTURE
     1 ZINC000433533595        1 TEMP              0 ****  ****    0 ROOT


##########                                Name:    ZINC000986832075
##########                DOCK_Rotatable_Bonds:                   7
##########                         Heavy_Atoms:                  25
##########                    Molecular_Weight:             347.433
##########                DOCK_Rotatable_Bonds:                   7
##########                       Formal_Charge:          -0.0200006
##########                     HBond_Acceptors:                   6
##########                        HBond_Donors:                   1
##########                         Heavy_Atoms:                  25
##########                          Grid_Score:          -29.795795
##########                     Grid_vdw_energy:          -28.850801
##########                      Grid_es_energy:           -0.944993
##########           Internal_energy_repulsive:           34.097404

@<TRIPOS>MOLECULE
ZINC000986832075
 51 53 1 0 0
SMALL
USER_CHARGES


@<TRIPOS>ATOM
      1 C1         -0.0716    5.6296   50.7260 C.3     1  ZINC000986832075   -0.1700
      2 C2         -0.3898    4.1353   50.6437 C.3     1  ZINC000986832075    0.1500
      3 H3          0.5319    3.5617   50.7413 H       1  ZINC000986832075    0.0900
      4 N4         -1.3083    3.7714   51.7254 N.am    1  ZINC000986832075   -0.7200
      5 C5         -0.8232    3.3065   52.8936 C.2     1  ZINC000986832075    0.5600
      6 O6          0.3764    3.1906   53.0504 O.2     1  ZINC000986832075   -0.5100
      7 C7         -1.7513    2.9372   53.9857 C.ar    1  ZINC000986832075   -0.1300
      8 C8         -1.2679    2.5138   55.2279 C.ar    1  ZINC000986832075   -0.1100
      9 C9         -2.1692    2.1787   56.2190 C.ar    1  ZINC000986832075    0.0900
     10 N10        -3.4684    2.2527   56.0079 N.ar    1  ZINC000986832075   -0.4400
     11 C11        -3.9689    2.6459   54.8544 C.ar    1  ZINC000986832075    0.0700
     12 C12        -3.1389    3.0073   53.8062 C.ar    1  ZINC000986832075    0.1100
     13 F13        -3.6590    3.4096   52.6261 F       1  ZINC000986832075   -0.1000
     14 C14        -1.0424    3.8263   49.2948 C.3     1  ZINC000986832075   -0.1000
     15 C15         0.0219    3.8540   48.1953 C.3     1  ZINC000986832075   -0.1300
     16 C16        -0.6406    3.5784   46.8418 C.3     1  ZINC000986832075    0.1100
     17 N17        -1.3858    2.3152   46.9287 N.am    1  ZINC000986832075   -0.6100
     18 C18        -1.1700    1.3279   46.0369 C.2     1  ZINC000986832075    0.5200
     19 O19        -1.7915    0.2898   46.1193 O.2     1  ZINC000986832075   -0.5300
     20 C20        -0.1563    1.5140   44.9374 C.3     1  ZINC000986832075   -0.0800
     21 H21        -0.2289    2.5279   44.5440 H       1  ZINC000986832075    0.0900
     22 C22        -0.4309    0.5107   43.8154 C.3     1  ZINC000986832075   -0.1400
     23 C23         1.2495    1.2829   45.4954 C.3     1  ZINC000986832075   -0.1400
     24 C24         2.4005    1.1851   44.4920 C.3     1  ZINC000986832075   -0.1800
     25 C25         2.2558    2.4287   45.3714 C.3     1  ZINC000986832075   -0.1700
     26 C26        -2.3705    2.1485   48.0063 C.3     1  ZINC000986832075    0.1000
     27 C27        -1.6886    2.4401   49.3467 C.3     1  ZINC000986832075   -0.1300
     28 H28         0.3934    5.8497   51.6869 H       1  ZINC000986832075    0.0600
     29 H29         0.6119    5.9004   49.9211 H       1  ZINC000986832075    0.0700
     30 H30        -0.9932    6.2033   50.6283 H       1  ZINC000986832075    0.0600
     31 H31        -2.2658    3.8650   51.6007 H       1  ZINC000986832075    0.4000
     32 H32        -0.2052    2.4496   55.4093 H       1  ZINC000986832075    0.1500
     33 H33        -1.8043    1.8508   57.1812 H       1  ZINC000986832075    0.1700
     34 H34        -5.0403    2.6910   54.7258 H       1  ZINC000986832075    0.1800
     35 H35        -1.8052    4.5748   49.0804 H       1  ZINC000986832075    0.0800
     36 H36         0.4980    4.8343   48.1745 H       1  ZINC000986832075    0.0700
     37 H37         0.7720    3.0889   48.3957 H       1  ZINC000986832075    0.0800
     38 H38        -1.3254    4.3906   46.5981 H       1  ZINC000986832075    0.0700
     39 H39         0.1247    3.4988   46.0698 H       1  ZINC000986832075    0.0900
     40 H40        -0.4458   -0.4988   44.2263 H       1  ZINC000986832075    0.0600
     41 H41        -1.3957    0.7314   43.3587 H       1  ZINC000986832075    0.0600
     42 H42         0.3533    0.5847   43.0619 H       1  ZINC000986832075    0.0700
     43 H43         1.3046    0.6589   46.3874 H       1  ZINC000986832075    0.1100
     44 H44         3.2130    0.4964   44.7238 H       1  ZINC000986832075    0.1000
     45 H45         2.1562    1.2852   43.4345 H       1  ZINC000986832075    0.0900
     46 H46         1.9164    3.3471   44.8924 H       1  ZINC000986832075    0.0900
     47 H47         2.9733    2.5583   46.1818 H       1  ZINC000986832075    0.1000
     48 H48        -3.1964    2.8440   47.8575 H       1  ZINC000986832075    0.0700
     49 H49        -2.7466    1.1253   48.0026 H       1  ZINC000986832075    0.0900
     50 H50        -0.9224    1.6884   49.5363 H       1  ZINC000986832075    0.0800
     51 H51        -2.4300    2.4140   50.1453 H       1  ZINC000986832075    0.0800
@<TRIPOS>BOND
     1     1     2    1
     2     1    28    1
     3     1    29    1
     4     1    30    1
     5     2     3    1
     6     2     4    1
     7     2    14    1
     8     4     5   am
     9     4    31    1
    10     5     6    2
    11     5     7    1
    12     7    12   ar
    13     7     8   ar
    14     8     9   ar
    15     8    32    1
    16     9    10   ar
    17     9    33    1
    18    10    11   ar
    19    11    12   ar
    20    11    34    1
    21    12    13    1
    22    14    27    1
    23    14    15    1
    24    14    35    1
    25    15    16    1
    26    15    36    1
    27    15    37    1
    28    16    17    1
    29    16    38    1
    30    16    39    1
    31    17    18   am
    32    17    26    1
    33    18    19    2
    34    18    20    1
    35    20    21    1
    36    20    22    1
    37    20    23    1
    38    22    40    1
    39    22    41    1
    40    22    42    1
    41    23    25    1
    42    23    24    1
    43    23    43    1
    44    24    25    1
    45    24    44    1
    46    24    45    1
    47    25    46    1
    48    25    47    1
    49    26    27    1
    50    26    48    1
    51    26    49    1
    52    27    50    1
    53    27    51    1
@<TRIPOS>SUBSTRUCTURE
     1 ZINC000986832075        1 TEMP              0 ****  ****    0 ROOT


##########                                Name:    ZINC001347442583
##########                DOCK_Rotatable_Bonds:                   9
##########                         Heavy_Atoms:                  27
##########                    Molecular_Weight:             370.492
##########                DOCK_Rotatable_Bonds:                   9
##########                       Formal_Charge:          -0.0400009
##########                     HBond_Acceptors:                   5
##########                        HBond_Donors:                   1
##########                         Heavy_Atoms:                  27
##########                          Grid_Score:          -29.763548
##########                     Grid_vdw_energy:          -28.146675
##########                      Grid_es_energy:           -1.616873
##########           Internal_energy_repulsive:           13.370784

@<TRIPOS>MOLECULE
ZINC001347442583
 57 60 1 0 0
SMALL
USER_CHARGES


@<TRIPOS>ATOM
      1 O1         -0.4857    1.0625   49.5746 O.2     1  ZINC001347442583   -0.5400
      2 C2         -0.4470    2.2317   49.2547 C.2     1  ZINC001347442583    0.5400
      3 C3         -0.9323    2.6567   47.8927 C.3     1  ZINC001347442583   -0.1400
      4 C4         -1.2196    1.4166   47.0438 C.3     1  ZINC001347442583   -0.1000
      5 C5         -1.5355    1.8430   45.6088 C.3     1  ZINC001347442583   -0.1100
      6 C6         -1.4410    0.6281   44.6834 C.3     1  ZINC001347442583   -0.0800
      7 C7         -0.1242    0.6557   43.9509 C.ar    1  ZINC001347442583   -0.0800
      8 C8          1.0051    1.1484   44.5777 C.ar    1  ZINC001347442583   -0.1200
      9 C9          2.2129    1.1738   43.9058 C.ar    1  ZINC001347442583   -0.1200
     10 C10         2.2915    0.7061   42.6073 C.ar    1  ZINC001347442583   -0.1300
     11 C11         1.1624    0.2125   41.9810 C.ar    1  ZINC001347442583   -0.1200
     12 C12        -0.0445    0.1831   42.6544 C.ar    1  ZINC001347442583   -0.1200
     13 N13         0.0249    3.1518   50.1192 N.am    1  ZINC001347442583   -0.6300
     14 C14         0.1763    4.6404   49.9840 C.3     1  ZINC001347442583    0.1200
     15 H15        -0.1386    5.0656   49.0311 H       1  ZINC001347442583    0.1200
     16 C16         1.6840    4.8203   50.3352 C.3     1  ZINC001347442583   -0.1300
     17 C17         1.9463    3.7059   51.3780 C.3     1  ZINC001347442583   -0.1300
     18 C18         0.5553    3.0052   51.5171 C.3     1  ZINC001347442583    0.1200
     19 H19         0.5776    1.9898   51.9126 H       1  ZINC001347442583    0.1200
     20 C20        -0.3297    4.0153   52.3078 C.3     1  ZINC001347442583    0.1300
     21 H21         0.2091    4.4033   53.1723 H       1  ZINC001347442583    0.1100
     22 N22        -1.5852    3.3856   52.7244 N.am    1  ZINC001347442583   -0.7200
     23 C23        -2.2962    3.9089   53.7427 C.2     1  ZINC001347442583    0.5300
     24 O24        -1.8959    4.9004   54.3152 O.2     1  ZINC001347442583   -0.5300
     25 C25        -3.5886    3.2622   54.1700 C.3     1  ZINC001347442583   -0.1500
     26 H26        -3.7750    2.3551   53.5951 H       1  ZINC001347442583    0.1100
     27 C27        -3.5778    2.9589   55.6930 C.3     1  ZINC001347442583   -0.1400
     28 C28        -5.0920    3.0203   56.0159 C.3     1  ZINC001347442583    0.0500
     29 O29        -5.6104    4.0708   55.1847 O.3     1  ZINC001347442583   -0.3800
     30 C30        -4.7678    4.2496   54.0359 C.3     1  ZINC001347442583    0.0700
     31 C31        -0.6111    5.1355   51.2344 C.3     1  ZINC001347442583   -0.1400
     32 H32        -1.8447    3.2437   47.9988 H       1  ZINC001347442583    0.0900
     33 H33        -0.1664    3.2606   47.4061 H       1  ZINC001347442583    0.0900
     34 H34        -0.3459    0.7649   47.0454 H       1  ZINC001347442583    0.0700
     35 H35        -2.0729    0.8812   47.4600 H       1  ZINC001347442583    0.0700
     36 H36        -2.5436    2.2550   45.5656 H       1  ZINC001347442583    0.0600
     37 H37        -0.8194    2.5999   45.2886 H       1  ZINC001347442583    0.0600
     38 H38        -1.5089   -0.2851   45.2745 H       1  ZINC001347442583    0.0700
     39 H39        -2.2582    0.6561   43.9626 H       1  ZINC001347442583    0.0700
     40 H40         0.9437    1.5139   45.5920 H       1  ZINC001347442583    0.1200
     41 H41         3.0950    1.5595   44.3952 H       1  ZINC001347442583    0.1200
     42 H42         3.2350    0.7265   42.0822 H       1  ZINC001347442583    0.1200
     43 H43         1.2237   -0.1527   40.9664 H       1  ZINC001347442583    0.1200
     44 H44        -0.9268   -0.2025   42.1650 H       1  ZINC001347442583    0.1200
     45 H45         2.3045    4.6728   49.4513 H       1  ZINC001347442583    0.0700
     46 H46         1.8621    5.8034   50.7710 H       1  ZINC001347442583    0.0800
     47 H47         2.6969    3.0058   51.0112 H       1  ZINC001347442583    0.0800
     48 H48         2.2544    4.1364   52.3308 H       1  ZINC001347442583    0.0800
     49 H49        -1.9047    2.5920   52.2672 H       1  ZINC001347442583    0.4000
     50 H50        -3.1734    1.9666   55.8931 H       1  ZINC001347442583    0.0900
     51 H51        -3.0278    3.7232   56.2419 H       1  ZINC001347442583    0.0900
     52 H52        -5.5701    2.0722   55.7696 H       1  ZINC001347442583    0.0700
     53 H53        -5.2451    3.2600   57.0682 H       1  ZINC001347442583    0.0900
     54 H54        -4.3896    5.2716   54.0101 H       1  ZINC001347442583    0.0700
     55 H55        -5.3320    4.0397   53.1273 H       1  ZINC001347442583    0.0800
     56 H56        -0.2072    6.0929   51.5636 H       1  ZINC001347442583    0.0900
     57 H57        -1.6797    5.2165   51.0350 H       1  ZINC001347442583    0.0800
@<TRIPOS>BOND
     1     1     2    2
     2     2     3    1
     3     2    13   am
     4     3     4    1
     5     3    32    1
     6     3    33    1
     7     4     5    1
     8     4    34    1
     9     4    35    1
    10     5     6    1
    11     5    36    1
    12     5    37    1
    13     6     7    1
    14     6    38    1
    15     6    39    1
    16     7    12   ar
    17     7     8   ar
    18     8     9   ar
    19     8    40    1
    20     9    10   ar
    21     9    41    1
    22    10    11   ar
    23    10    42    1
    24    11    12   ar
    25    11    43    1
    26    12    44    1
    27    13    18    1
    28    13    14    1
    29    14    15    1
    30    14    31    1
    31    14    16    1
    32    16    17    1
    33    16    45    1
    34    16    46    1
    35    17    18    1
    36    17    47    1
    37    17    48    1
    38    18    19    1
    39    18    20    1
    40    20    21    1
    41    20    22    1
    42    20    31    1
    43    22    23   am
    44    22    49    1
    45    23    24    2
    46    23    25    1
    47    25    26    1
    48    25    30    1
    49    25    27    1
    50    27    28    1
    51    27    50    1
    52    27    51    1
    53    28    29    1
    54    28    52    1
    55    28    53    1
    56    29    30    1
    57    30    54    1
    58    30    55    1
    59    31    56    1
    60    31    57    1
@<TRIPOS>SUBSTRUCTURE
     1 ZINC001347442583        1 TEMP              0 ****  ****    0 ROOT


##########                                Name:    ZINC001135312623
##########                DOCK_Rotatable_Bonds:                   3
##########                         Heavy_Atoms:                  25
##########                    Molecular_Weight:             341.323
##########                DOCK_Rotatable_Bonds:                   3
##########                       Formal_Charge:        -1.78814e-07
##########                     HBond_Acceptors:                   8
##########                        HBond_Donors:                   2
##########                         Heavy_Atoms:                  25
##########                          Grid_Score:          -29.760782
##########                     Grid_vdw_energy:          -27.222298
##########                      Grid_es_energy:           -2.538484
##########           Internal_energy_repulsive:            4.541781

@<TRIPOS>MOLECULE
ZINC001135312623
 40 42 1 0 0
SMALL
USER_CHARGES


@<TRIPOS>ATOM
      1 C1         -1.9709    3.0260   55.0681 C.3     1  ZINC001135312623   -0.1300
      2 C2         -3.4732    3.0077   55.1854 C.ar    1  ZINC001135312623   -0.0600
      3 C3         -4.0691    2.9901   56.4309 C.ar    1  ZINC001135312623   -0.1000
      4 C4         -5.4478    2.9728   56.5395 C.ar    1  ZINC001135312623   -0.0300
      5 C5         -6.0946    2.9536   57.9005 C.3     1  ZINC001135312623   -0.1300
      6 C6         -6.2339    2.9737   55.4021 C.ar    1  ZINC001135312623   -0.0200
      7 N7         -7.7089    2.9551   55.5229 N.pl3   1  ZINC001135312623    0.0200
      8 O8         -8.3789    2.3425   54.7108 O.2     1  ZINC001135312623   -0.1500
      9 O9         -8.2529    3.5524   56.4344 O.2     1  ZINC001135312623   -0.1500
     10 C10        -5.6442    2.9922   54.1531 C.ar    1  ZINC001135312623   -0.0700
     11 C11        -4.2602    3.0144   54.0406 C.ar    1  ZINC001135312623    0.1500
     12 N12        -3.6599    3.0332   52.7777 N.am    1  ZINC001135312623   -0.6600
     13 C13        -3.6322    4.1748   52.0617 C.2     1  ZINC001135312623    0.5600
     14 O14        -4.1291    5.1883   52.5139 O.2     1  ZINC001135312623   -0.5000
     15 C15        -2.9988    4.1947   50.7292 C.ar    1  ZINC001135312623   -0.1600
     16 C16        -2.4835    5.3884   50.2170 C.ar    1  ZINC001135312623   -0.0400
     17 C17        -1.8928    5.4065   48.9725 C.ar    1  ZINC001135312623   -0.1500
     18 C18        -1.8097    4.2369   48.2279 C.ar    1  ZINC001135312623    0.2000
     19 N19        -1.2186    4.2337   46.9642 N.am    1  ZINC001135312623   -0.6700
     20 C20        -1.4228    3.1909   46.1346 C.2     1  ZINC001135312623    0.6600
     21 O21        -0.8874    3.1780   45.0438 O.2     1  ZINC001135312623   -0.4900
     22 O22        -2.2117    2.1643   46.4995 O.3     1  ZINC001135312623   -0.3400
     23 C23        -2.2138    1.7912   47.9049 C.3     1  ZINC001135312623    0.1100
     24 C24        -2.3215    3.0445   48.7373 C.ar    1  ZINC001135312623   -0.1800
     25 C25        -2.9080    3.0175   49.9790 C.ar    1  ZINC001135312623    0.0000
     26 H26        -1.6201    4.0579   55.0535 H       1  ZINC001135312623    0.0900
     27 H27        -1.5335    2.5055   55.9201 H       1  ZINC001135312623    0.0800
     28 H28        -1.6724    2.5278   54.1456 H       1  ZINC001135312623    0.0700
     29 H29        -3.4579    2.9895   57.3213 H       1  ZINC001135312623    0.1500
     30 H30        -6.1856    3.9736   58.2739 H       1  ZINC001135312623    0.0900
     31 H31        -7.0848    2.5043   57.8257 H       1  ZINC001135312623    0.0800
     32 H32        -5.4811    2.3691   58.5861 H       1  ZINC001135312623    0.0800
     33 H33        -6.2588    2.9927   53.2651 H       1  ZINC001135312623    0.1700
     34 H34        -3.2636    2.2248   52.4169 H       1  ZINC001135312623    0.4200
     35 H35        -2.5485    6.2973   50.7968 H       1  ZINC001135312623    0.1400
     36 H36        -1.4951    6.3290   48.5762 H       1  ZINC001135312623    0.1500
     37 H37        -0.6637    4.9782   46.6839 H       1  ZINC001135312623    0.4300
     38 H38        -3.0651    1.1419   48.1096 H       1  ZINC001135312623    0.1300
     39 H39        -1.2872    1.2703   48.1463 H       1  ZINC001135312623    0.1000
     40 H40        -3.3009    2.0918   50.3729 H       1  ZINC001135312623    0.1500
@<TRIPOS>BOND
     1     1     2    1
     2     1    26    1
     3     1    27    1
     4     1    28    1
     5     2    11   ar
     6     2     3   ar
     7     3     4   ar
     8     3    29    1
     9     4     5    1
    10     4     6   ar
    11     5    30    1
    12     5    31    1
    13     5    32    1
    14     6     7    1
    15     6    10   ar
    16     7     8    2
    17     7     9    2
    18    10    11   ar
    19    10    33    1
    20    11    12    1
    21    12    13   am
    22    12    34    1
    23    13    14    2
    24    13    15    1
    25    15    25   ar
    26    15    16   ar
    27    16    17   ar
    28    16    35    1
    29    17    18   ar
    30    17    36    1
    31    18    24   ar
    32    18    19    1
    33    19    20   am
    34    19    37    1
    35    20    21    2
    36    20    22    1
    37    22    23    1
    38    23    24    1
    39    23    38    1
    40    23    39    1
    41    24    25   ar
    42    25    40    1
@<TRIPOS>SUBSTRUCTURE
     1 ZINC001135312623        1 TEMP              0 ****  ****    0 ROOT


##########                                Name:    ZINC000291574087
##########                DOCK_Rotatable_Bonds:                   8
##########                         Heavy_Atoms:                  23
##########                    Molecular_Weight:             387.249
##########                DOCK_Rotatable_Bonds:                   8
##########                       Formal_Charge:          -0.0400007
##########                     HBond_Acceptors:                   6
##########                        HBond_Donors:                   2
##########                         Heavy_Atoms:                  23
##########                          Grid_Score:          -29.759777
##########                     Grid_vdw_energy:          -29.557789
##########                      Grid_es_energy:           -0.201989
##########           Internal_energy_repulsive:           22.503546

@<TRIPOS>MOLECULE
ZINC000291574087
 43 44 1 0 0
SMALL
USER_CHARGES


@<TRIPOS>ATOM
      1 C1         -3.0146    2.2043   55.8376 C.3     1  ZINC000291574087    0.0200
      2 O2         -4.2361    2.2161   55.0961 O.3     1  ZINC000291574087   -0.3700
      3 C3         -4.8540    3.5021   55.0143 C.3     1  ZINC000291574087    0.1400
      4 C4         -6.2769    3.3508   54.4728 C.3     1  ZINC000291574087   -0.1500
      5 C5         -4.0437    4.3985   54.0757 C.3     1  ZINC000291574087    0.0900
      6 N6         -3.9198    3.7504   52.7678 N.am    1  ZINC000291574087   -0.6900
      7 C7         -2.7522    3.8049   52.0966 C.2     1  ZINC000291574087    0.5100
      8 O8         -1.8041    4.3921   52.5751 O.2     1  ZINC000291574087   -0.5100
      9 C9         -2.6254    3.1427   50.7640 C.2     1  ZINC000291574087    0.5100
     10 O10        -3.5393    2.4719   50.3301 O.2     1  ZINC000291574087   -0.4900
     11 N11        -1.4962    3.2900   50.0432 N.am    1  ZINC000291574087   -0.6400
     12 C12        -1.3774    2.6698   48.7953 C.ar    1  ZINC000291574087    0.1300
     13 C13        -1.2746    1.2878   48.7122 C.ar    1  ZINC000291574087   -0.1000
     14 C14        -1.1578    0.6776   47.4782 C.ar    1  ZINC000291574087   -0.0400
     15 C15        -1.0463   -0.8225   47.3883 C.3     1  ZINC000291574087   -0.1300
     16 C16        -1.1435    1.4415   46.3250 C.ar    1  ZINC000291574087   -0.0900
     17 Br17       -0.9846    0.6007   44.6385 Br      1  ZINC000291574087   -0.0300
     18 C18        -1.2457    2.8195   46.4025 C.ar    1  ZINC000291574087   -0.1000
     19 C19        -1.3677    3.4362   47.6338 C.ar    1  ZINC000291574087    0.0700
     20 F20        -1.4674    4.7813   47.7099 F       1  ZINC000291574087   -0.1300
     21 C21        -4.9028    4.1339   56.4069 C.3     1  ZINC000291574087   -0.1900
     22 C22        -6.2674    4.5871   56.9296 C.3     1  ZINC000291574087   -0.1700
     23 C23        -5.5976    3.3434   57.5174 C.3     1  ZINC000291574087   -0.1600
     24 H24        -2.6087    1.1928   55.8531 H       1  ZINC000291574087    0.0900
     25 H25        -2.2972    2.8765   55.3668 H       1  ZINC000291574087    0.0400
     26 H26        -3.2061    2.5346   56.8586 H       1  ZINC000291574087    0.0500
     27 H27        -6.8541    2.7122   55.1415 H       1  ZINC000291574087    0.0700
     28 H28        -6.7481    4.3316   54.4105 H       1  ZINC000291574087    0.0800
     29 H29        -6.2421    2.9007   53.4807 H       1  ZINC000291574087    0.0700
     30 H30        -4.5511    5.3562   53.9600 H       1  ZINC000291574087    0.0900
     31 H31        -3.0512    4.5615   54.4959 H       1  ZINC000291574087    0.0800
     32 H32        -4.6780    3.2820   52.3848 H       1  ZINC000291574087    0.4200
     33 H33        -0.7659    3.8261   50.3898 H       1  ZINC000291574087    0.4300
     34 H34        -1.2856    0.6901   49.6117 H       1  ZINC000291574087    0.1600
     35 H35        -2.0427   -1.2566   47.3056 H       1  ZINC000291574087    0.0800
     36 H36        -0.4589   -1.0912   46.5104 H       1  ZINC000291574087    0.0800
     37 H37        -0.5567   -1.2048   48.2840 H       1  ZINC000291574087    0.0800
     38 H38        -1.2338    3.4131   45.5004 H       1  ZINC000291574087    0.1500
     39 H39        -4.0340    4.7317   56.6827 H       1  ZINC000291574087    0.1100
     40 H40        -6.2967    5.4834   57.5493 H       1  ZINC000291574087    0.1000
     41 H41        -7.1304    4.4353   56.2814 H       1  ZINC000291574087    0.1000
     42 H42        -6.0200    2.3733   57.2558 H       1  ZINC000291574087    0.1000
     43 H43        -5.1862    3.4214   58.5237 H       1  ZINC000291574087    0.1000
@<TRIPOS>BOND
     1     1     2    1
     2     1    24    1
     3     1    25    1
     4     1    26    1
     5     2     3    1
     6     3     4    1
     7     3     5    1
     8     3    21    1
     9     4    27    1
    10     4    28    1
    11     4    29    1
    12     5     6    1
    13     5    30    1
    14     5    31    1
    15     6     7   am
    16     6    32    1
    17     7     8    2
    18     7     9    1
    19     9    10    2
    20     9    11   am
    21    11    12    1
    22    11    33    1
    23    12    19   ar
    24    12    13   ar
    25    13    14   ar
    26    13    34    1
    27    14    15    1
    28    14    16   ar
    29    15    35    1
    30    15    36    1
    31    15    37    1
    32    16    17    1
    33    16    18   ar
    34    18    19   ar
    35    18    38    1
    36    19    20    1
    37    21    23    1
    38    21    22    1
    39    21    39    1
    40    22    23    1
    41    22    40    1
    42    22    41    1
    43    23    42    1
    44    23    43    1
@<TRIPOS>SUBSTRUCTURE
     1 ZINC000291574087        1 TEMP              0 ****  ****    0 ROOT


##########                                Name:    ZINC000459459628
##########                DOCK_Rotatable_Bonds:                   8
##########                         Heavy_Atoms:                  27
##########                    Molecular_Weight:             377.366
##########                DOCK_Rotatable_Bonds:                   8
##########                       Formal_Charge:         -0.00999984
##########                     HBond_Acceptors:                   8
##########                        HBond_Donors:                   1
##########                         Heavy_Atoms:                  27
##########                          Grid_Score:          -29.759430
##########                     Grid_vdw_energy:          -28.703724
##########                      Grid_es_energy:           -1.055707
##########           Internal_energy_repulsive:           17.420479

@<TRIPOS>MOLECULE
ZINC000459459628
 45 46 1 0 0
SMALL
USER_CHARGES


@<TRIPOS>ATOM
      1 C1         -8.9630    0.4523   58.7032 C.3     1  ZINC000459459628   -0.1600
      2 C2         -9.2891    0.1129   60.1590 C.3     1  ZINC000459459628    0.1600
      3 H3        -10.2864    0.4791   60.4028 H       1  ZINC000459459628    0.1100
      4 C4         -8.2629    0.7765   61.0796 C.3     1  ZINC000459459628   -0.0900
      5 C5         -8.6691    0.5699   62.5161 C.ar    1  ZINC000459459628   -0.0500
      6 C6         -7.8255   -0.0985   63.3833 C.ar    1  ZINC000459459628   -0.1200
      7 C7         -8.1969   -0.2888   64.7015 C.ar    1  ZINC000459459628   -0.0900
      8 C8         -9.4120    0.1892   65.1534 C.ar    1  ZINC000459459628   -0.1600
      9 C9        -10.2578    0.8595   64.2856 C.ar    1  ZINC000459459628    0.1000
     10 F10       -11.4462    1.3273   64.7262 F       1  ZINC000459459628   -0.1400
     11 C11        -9.8826    1.0540   62.9672 C.ar    1  ZINC000459459628   -0.1500
     12 N12        -9.2436   -1.3397   60.3438 N.am    1  ZINC000459459628   -0.6200
     13 C13        -7.9654   -2.0048   60.6086 C.3     1  ZINC000459459628    0.0700
     14 C14       -10.3777   -2.0642   60.2700 C.2     1  ZINC000459459628    0.7100
     15 O15       -10.3399   -3.2699   60.4218 O.2     1  ZINC000459459628   -0.5700
     16 N16       -11.5538   -1.4520   60.0278 N.am    1  ZINC000459459628   -0.6800
     17 C17       -12.7335   -2.2055   59.9510 C.ar    1  ZINC000459459628    0.1500
     18 C18       -13.0340   -2.9042   58.7964 C.ar    1  ZINC000459459628   -0.0400
     19 C19       -14.2109   -3.6546   58.7242 C.ar    1  ZINC000459459628   -0.0300
     20 C20       -14.5269   -4.3805   57.5310 C.1     1  ZINC000459459628    0.2600
     21 N21       -14.7777   -4.9564   56.5845 N.1     1  ZINC000459459628   -0.4100
     22 C22       -15.0781   -3.6952   59.8188 C.ar    1  ZINC000459459628   -0.0500
     23 C23       -14.7729   -2.9958   60.9671 C.ar    1  ZINC000459459628   -0.1700
     24 C24       -13.6021   -2.2552   61.0421 C.ar    1  ZINC000459459628    0.1100
     25 O25       -13.3062   -1.5682   62.1758 O.3     1  ZINC000459459628   -0.3200
     26 C26       -13.8460   -0.2505   62.2955 C.3     1  ZINC000459459628    0.4100
     27 F27       -15.1626   -0.2412   61.8226 F       1  ZINC000459459628   -0.1900
     28 F28       -13.8303    0.1396   63.6390 F       1  ZINC000459459628   -0.1900
     29 H29        -7.9657    0.0860   58.4593 H       1  ZINC000459459628    0.0600
     30 H30        -9.6940   -0.0205   58.0474 H       1  ZINC000459459628    0.0600
     31 H31        -8.9968    1.5330   58.5657 H       1  ZINC000459459628    0.0700
     32 H32        -7.2824    0.3309   60.9116 H       1  ZINC000459459628    0.0800
     33 H33        -8.2186    1.8441   60.8644 H       1  ZINC000459459628    0.0900
     34 H34        -6.8757   -0.4728   63.0309 H       1  ZINC000459459628    0.1300
     35 H35        -7.5371   -0.8115   65.3781 H       1  ZINC000459459628    0.1300
     36 H36        -9.7023    0.0399   66.1829 H       1  ZINC000459459628    0.1300
     37 H37       -10.5412    1.5769   62.2897 H       1  ZINC000459459628    0.1300
     38 H38        -7.7933   -2.0457   61.6841 H       1  ZINC000459459628    0.0600
     39 H39        -7.9925   -3.0174   60.2061 H       1  ZINC000459459628    0.0700
     40 H40        -7.1597   -1.4460   60.1328 H       1  ZINC000459459628    0.0800
     41 H41       -11.5839   -0.4901   59.9067 H       1  ZINC000459459628    0.4100
     42 H42       -12.3612   -2.8699   57.9522 H       1  ZINC000459459628    0.1600
     43 H43       -15.9880   -4.2744   59.7652 H       1  ZINC000459459628    0.1400
     44 H44       -15.4449   -3.0280   61.8119 H       1  ZINC000459459628    0.1500
     45 H45       -13.2442    0.4434   61.7087 H       1  ZINC000459459628    0.1900
@<TRIPOS>BOND
     1     1     2    1
     2     1    29    1
     3     1    30    1
     4     1    31    1
     5     2     3    1
     6     2     4    1
     7     2    12    1
     8     4     5    1
     9     4    32    1
    10     4    33    1
    11     5    11   ar
    12     5     6   ar
    13     6     7   ar
    14     6    34    1
    15     7     8   ar
    16     7    35    1
    17     8     9   ar
    18     8    36    1
    19     9    10    1
    20     9    11   ar
    21    11    37    1
    22    12    13    1
    23    12    14   am
    24    13    38    1
    25    13    39    1
    26    13    40    1
    27    14    15    2
    28    14    16   am
    29    16    17    1
    30    16    41    1
    31    17    24   ar
    32    17    18   ar
    33    18    19   ar
    34    18    42    1
    35    19    20    1
    36    19    22   ar
    37    20    21    3
    38    22    23   ar
    39    22    43    1
    40    23    24   ar
    41    23    44    1
    42    24    25    1
    43    25    26    1
    44    26    27    1
    45    26    28    1
    46    26    45    1
@<TRIPOS>SUBSTRUCTURE
     1 ZINC000459459628        1 TEMP              0 ****  ****    0 ROOT


##########                                Name:    ZINC001284642199
##########                DOCK_Rotatable_Bonds:                   8
##########                         Heavy_Atoms:                  25
##########                    Molecular_Weight:             346.516
##########                DOCK_Rotatable_Bonds:                   8
##########                       Formal_Charge:         -3.8743e-07
##########                     HBond_Acceptors:                   5
##########                        HBond_Donors:                   2
##########                         Heavy_Atoms:                  25
##########                          Grid_Score:          -29.755260
##########                     Grid_vdw_energy:          -28.816101
##########                      Grid_es_energy:           -0.939160
##########           Internal_energy_repulsive:           20.519419

@<TRIPOS>MOLECULE
ZINC001284642199
 59 60 1 0 0
SMALL
USER_CHARGES


@<TRIPOS>ATOM
      1 C1          1.3683    1.1664   58.6772 C.3     1  ZINC001284642199   -0.1100
      2 C2          1.3700    1.5574   57.2219 C.ar    1  ZINC001284642199   -0.1900
      3 C3          2.4363    1.2284   56.3998 C.ar    1  ZINC001284642199    0.1500
      4 N4          2.4026    1.5880   55.1268 N.ar    1  ZINC001284642199   -0.4900
      5 C5          1.3726    2.2504   54.6393 C.ar    1  ZINC001284642199    0.3100
      6 C6          1.3743    2.6414   53.1839 C.3     1  ZINC001284642199    0.1300
      7 N7          0.7042    3.9389   53.0246 N.3     1  ZINC001284642199   -0.6800
      8 C8         -0.7482    3.7678   52.8864 C.3     1  ZINC001284642199    0.0500
      9 C9         -1.2397    4.5474   51.6651 C.3     1  ZINC001284642199    0.1600
     10 H10        -0.6145    5.4287   51.5210 H       1  ZINC001284642199    0.1000
     11 N11        -1.1619    3.6938   50.4771 N.am    1  ZINC001284642199   -0.7200
     12 C12        -0.2003    3.9057   49.5568 C.2     1  ZINC001284642199    0.5200
     13 O13         0.6014    4.8022   49.7128 O.2     1  ZINC001284642199   -0.5300
     14 C14        -0.1214    3.0287   48.3338 C.3     1  ZINC001284642199   -0.1100
     15 H15         0.9198    2.9232   48.0290 H       1  ZINC001284642199    0.0900
     16 C16        -0.7004    1.6498   48.6569 C.3     1  ZINC001284642199   -0.1000
     17 C17        -0.6202    0.7594   47.4152 C.3     1  ZINC001284642199   -0.1100
     18 C18        -1.4225    1.3959   46.2785 C.3     1  ZINC001284642199   -0.0900
     19 H19        -2.4637    1.5013   46.5834 H       1  ZINC001284642199    0.0700
     20 C20        -1.3423    0.5055   45.0368 C.3     1  ZINC001284642199   -0.1500
     21 C21        -0.8435    2.7748   45.9555 C.3     1  ZINC001284642199   -0.1100
     22 C22        -0.9237    3.6652   47.1970 C.3     1  ZINC001284642199   -0.1100
     23 C23        -2.6899    4.9817   51.8870 C.3     1  ZINC001284642199   -0.0800
     24 C24        -3.5308    3.7671   52.2850 C.3     1  ZINC001284642199   -0.1400
     25 C25        -2.7441    6.0274   53.0025 C.3     1  ZINC001284642199   -0.1400
     26 C26        -3.2449    5.5849   50.5951 C.3     1  ZINC001284642199   -0.1300
     27 N27         0.3436    2.5846   55.3921 N.ar    1  ZINC001284642199   -0.5100
     28 C28         0.3051    2.2543   56.6730 C.ar    1  ZINC001284642199    0.1500
     29 H29         1.8263    1.9603   59.2672 H       1  ZINC001284642199    0.0800
     30 H30         0.3422    1.0117   59.0107 H       1  ZINC001284642199    0.0700
     31 H31         1.9352    0.2445   58.8065 H       1  ZINC001284642199    0.0700
     32 H32         3.2834    0.6861   56.7930 H       1  ZINC001284642199    0.1700
     33 H33         0.8448    1.8854   52.6040 H       1  ZINC001284642199    0.1000
     34 H34         2.4022    2.7173   52.8294 H       1  ZINC001284642199    0.0600
     35 H35         1.0845    4.4485   52.2411 H       1  ZINC001284642199    0.3400
     36 H36        -1.2450    4.1430   53.7811 H       1  ZINC001284642199    0.0900
     37 H37        -0.9790    2.7102   52.7593 H       1  ZINC001284642199    0.0400
     38 H38        -1.8023    2.9760   50.3528 H       1  ZINC001284642199    0.3900
     39 H39        -1.7416    1.7553   48.9617 H       1  ZINC001284642199    0.0700
     40 H40        -0.1289    1.1963   49.4667 H       1  ZINC001284642199    0.0700
     41 H41        -1.0327   -0.2229   47.6453 H       1  ZINC001284642199    0.0700
     42 H42         0.4209    0.6539   47.1103 H       1  ZINC001284642199    0.0600
     43 H43        -1.7549   -0.4768   45.2670 H       1  ZINC001284642199    0.0500
     44 H44        -1.9139    0.9589   44.2270 H       1  ZINC001284642199    0.0500
     45 H45        -0.3012    0.4001   44.7320 H       1  ZINC001284642199    0.0500
     46 H46         0.1977    2.6693   45.6506 H       1  ZINC001284642199    0.0600
     47 H47        -1.4150    3.2283   45.1457 H       1  ZINC001284642199    0.0700
     48 H48        -1.9649    3.7706   47.5019 H       1  ZINC001284642199    0.0700
     49 H49        -0.5112    4.6475   46.9670 H       1  ZINC001284642199    0.0600
     50 H50        -3.1353    3.3373   53.2054 H       1  ZINC001284642199    0.0600
     51 H51        -4.5639    4.0764   52.4431 H       1  ZINC001284642199    0.0600
     52 H52        -3.4921    3.0221   51.4902 H       1  ZINC001284642199    0.0500
     53 H53        -2.1451    6.8927   52.7190 H       1  ZINC001284642199    0.0600
     54 H54        -3.7773    6.3367   53.1606 H       1  ZINC001284642199    0.0600
     55 H55        -2.3488    5.5976   53.9229 H       1  ZINC001284642199    0.0600
     56 H56        -3.2063    4.8400   49.8003 H       1  ZINC001284642199    0.0500
     57 H57        -4.2781    5.8943   50.7532 H       1  ZINC001284642199    0.0500
     58 H58        -2.6459    6.4503   50.3115 H       1  ZINC001284642199    0.0600
     59 H59        -0.5429    2.5279   57.2834 H       1  ZINC001284642199    0.1700
@<TRIPOS>BOND
     1     1     2    1
     2     1    29    1
     3     1    30    1
     4     1    31    1
     5     2    28   ar
     6     2     3   ar
     7     3     4   ar
     8     3    32    1
     9     4     5   ar
    10     5     6    1
    11     5    27   ar
    12     6     7    1
    13     6    33    1
    14     6    34    1
    15     7     8    1
    16     7    35    1
    17     8     9    1
    18     8    36    1
    19     8    37    1
    20     9    10    1
    21     9    11    1
    22     9    23    1
    23    11    12   am
    24    11    38    1
    25    12    13    2
    26    12    14    1
    27    14    15    1
    28    14    22    1
    29    14    16    1
    30    16    17    1
    31    16    39    1
    32    16    40    1
    33    17    18    1
    34    17    41    1
    35    17    42    1
    36    18    19    1
    37    18    20    1
    38    18    21    1
    39    20    43    1
    40    20    44    1
    41    20    45    1
    42    21    22    1
    43    21    46    1
    44    21    47    1
    45    22    48    1
    46    22    49    1
    47    23    24    1
    48    23    25    1
    49    23    26    1
    50    24    50    1
    51    24    51    1
    52    24    52    1
    53    25    53    1
    54    25    54    1
    55    25    55    1
    56    26    56    1
    57    26    57    1
    58    26    58    1
    59    27    28   ar
    60    28    59    1
@<TRIPOS>SUBSTRUCTURE
     1 ZINC001284642199        1 TEMP              0 ****  ****    0 ROOT


##########                                Name:    ZINC001490207225
##########                DOCK_Rotatable_Bonds:                   7
##########                         Heavy_Atoms:                  24
##########                    Molecular_Weight:             334.378
##########                DOCK_Rotatable_Bonds:                   7
##########                       Formal_Charge:           -0.010001
##########                     HBond_Acceptors:                   9
##########                        HBond_Donors:                   3
##########                         Heavy_Atoms:                  24
##########                          Grid_Score:          -29.746788
##########                     Grid_vdw_energy:          -27.206558
##########                      Grid_es_energy:           -2.540231
##########           Internal_energy_repulsive:            6.134146

@<TRIPOS>MOLECULE
ZINC001490207225
 46 48 1 0 0
SMALL
USER_CHARGES


@<TRIPOS>ATOM
      1 C1         -2.4491    4.0958   56.1213 C.3     1  ZINC001490207225    0.0900
      2 N2         -2.7631    4.2132   54.6952 N.pl3   1  ZINC001490207225   -0.3600
      3 C3         -1.9958    4.8106   53.7695 C.2     1  ZINC001490207225    0.1300
      4 C4         -2.6493    4.7021   52.5584 C.2     1  ZINC001490207225   -0.3000
      5 C5         -2.1765    5.2154   51.2598 C.2     1  ZINC001490207225    0.6200
      6 O6         -1.9993    6.4085   51.1057 O.2     1  ZINC001490207225   -0.5400
      7 N7         -1.9408    4.3623   50.2433 N.am    1  ZINC001490207225   -0.6200
      8 C8         -2.1109    2.9003   50.2644 C.3     1  ZINC001490207225    0.1100
      9 C9         -1.0532    2.3262   49.3075 C.3     1  ZINC001490207225   -0.1100
     10 H10        -0.2085    1.8928   49.8431 H       1  ZINC001490207225    0.1000
     11 C11        -1.7265    1.3071   48.3643 C.3     1  ZINC001490207225    0.1000
     12 N12        -1.1726    1.6114   47.0247 N.am    1  ZINC001490207225   -0.6200
     13 C13        -0.8038    0.7399   46.0651 C.2     1  ZINC001490207225    0.5300
     14 O14        -0.9129   -0.4530   46.2548 O.2     1  ZINC001490207225   -0.5300
     15 C15        -0.2559    1.2477   44.7563 C.3     1  ZINC001490207225    0.1200
     16 N16        -0.6311    0.3273   43.6799 N.am    1  ZINC001490207225   -0.7400
     17 C17         0.2244    0.0927   42.6652 C.2     1  ZINC001490207225    0.7100
     18 N18        -0.1200   -0.7552   41.6758 N.am    1  ZINC001490207225   -0.8600
     19 O19         1.3070    0.6457   42.6425 O.2     1  ZINC001490207225   -0.5900
     20 C20        -1.1161    3.0907   46.9793 C.3     1  ZINC001490207225    0.1100
     21 C21        -0.6280    3.5156   48.4077 C.3     1  ZINC001490207225   -0.0800
     22 C22         0.8757    3.7958   48.4419 C.3     1  ZINC001490207225   -0.1300
     23 C23        -1.4691    4.7112   48.8933 C.3     1  ZINC001490207225    0.1000
     24 C24        -3.8559    4.0065   52.7963 C.2     1  ZINC001490207225    0.0700
     25 N25        -3.9106    3.7163   54.0670 N.2     1  ZINC001490207225   -0.2900
     26 H26        -1.8883    3.1775   56.2954 H       1  ZINC001490207225    0.0800
     27 H27        -1.8506    4.9517   56.4332 H       1  ZINC001490207225    0.0900
     28 H28        -3.3748    4.0708   56.6963 H       1  ZINC001490207225    0.1000
     29 H29        -1.0426    5.2885   53.9409 H       1  ZINC001490207225    0.1900
     30 H30        -1.9491    2.5194   51.2728 H       1  ZINC001490207225    0.0900
     31 H31        -3.1104    2.6351   49.9198 H       1  ZINC001490207225    0.0800
     32 H32        -1.4699    0.2896   48.6591 H       1  ZINC001490207225    0.0900
     33 H33        -2.8079    1.4432   48.3679 H       1  ZINC001490207225    0.0900
     34 H34        -0.6668    2.2358   44.5492 H       1  ZINC001490207225    0.1000
     35 H35         0.8306    1.3115   44.8175 H       1  ZINC001490207225    0.1000
     36 H36        -1.4952   -0.1130   43.6974 H       1  ZINC001490207225    0.4100
     37 H37         0.4962   -0.9249   40.9461 H       1  ZINC001490207225    0.4000
     38 H38        -0.9841   -1.1955   41.6933 H       1  ZINC001490207225    0.4200
     39 H39        -0.3985    3.4204   46.2280 H       1  ZINC001490207225    0.0900
     40 H40        -2.1033    3.5021   46.7691 H       1  ZINC001490207225    0.0800
     41 H41         1.1081    4.6154   47.7620 H       1  ZINC001490207225    0.0700
     42 H42         1.1715    4.0689   49.4548 H       1  ZINC001490207225    0.0600
     43 H43         1.4188    2.9026   48.1332 H       1  ZINC001490207225    0.0600
     44 H44        -2.3284    4.8547   48.2383 H       1  ZINC001490207225    0.0800
     45 H45        -0.8588    5.6142   48.9135 H       1  ZINC001490207225    0.0900
     46 H46        -4.6003    3.7553   52.0554 H       1  ZINC001490207225    0.2000
@<TRIPOS>BOND
     1     1     2    1
     2     1    26    1
     3     1    27    1
     4     1    28    1
     5     2    25    1
     6     2     3    1
     7     3     4    2
     8     3    29    1
     9     4     5    1
    10     4    24    1
    11     5     6    2
    12     5     7   am
    13     7    23    1
    14     7     8    1
    15     8     9    1
    16     8    30    1
    17     8    31    1
    18     9    10    1
    19     9    21    1
    20     9    11    1
    21    11    12    1
    22    11    32    1
    23    11    33    1
    24    12    13   am
    25    12    20    1
    26    13    14    2
    27    13    15    1
    28    15    16    1
    29    15    34    1
    30    15    35    1
    31    16    17   am
    32    16    36    1
    33    17    18   am
    34    17    19    2
    35    18    37    1
    36    18    38    1
    37    20    21    1
    38    20    39    1
    39    20    40    1
    40    21    22    1
    41    21    23    1
    42    22    41    1
    43    22    42    1
    44    22    43    1
    45    23    44    1
    46    23    45    1
    47    24    25    2
    48    24    46    1
@<TRIPOS>SUBSTRUCTURE
     1 ZINC001490207225        1 TEMP              0 ****  ****    0 ROOT


##########                                Name:    ZINC001078110631
##########                DOCK_Rotatable_Bonds:                   7
##########                         Heavy_Atoms:                  25
##########                    Molecular_Weight:             353.369
##########                DOCK_Rotatable_Bonds:                   7
##########                       Formal_Charge:           0.0100006
##########                     HBond_Acceptors:                   8
##########                        HBond_Donors:                   2
##########                         Heavy_Atoms:                  25
##########                          Grid_Score:          -29.738302
##########                     Grid_vdw_energy:          -28.441263
##########                      Grid_es_energy:           -1.297040
##########           Internal_energy_repulsive:            9.541080

@<TRIPOS>MOLECULE
ZINC001078110631
 46 48 1 0 0
SMALL
USER_CHARGES


@<TRIPOS>ATOM
      1 O1         -3.6889    5.1392   50.8795 O.2     1  ZINC001078110631   -0.5100
      2 C2         -3.7818    4.1258   51.5449 C.2     1  ZINC001078110631    0.5600
      3 N3         -3.3036    2.9598   51.0672 N.am    1  ZINC001078110631   -0.7200
      4 C4         -2.6775    2.9122   49.7436 C.3     1  ZINC001078110631    0.1500
      5 H5         -3.2054    3.5686   49.0519 H       1  ZINC001078110631    0.1200
      6 C6         -2.6673    1.4646   49.2071 C.3     1  ZINC001078110631    0.0300
      7 N7         -1.3703    1.3391   48.4934 N.3     1  ZINC001078110631   -0.5000
      8 C8         -0.9796   -0.0703   48.3555 C.3     1  ZINC001078110631    0.0300
      9 C9          0.3303   -0.1619   47.5703 C.3     1  ZINC001078110631    0.1300
     10 N10         0.1281    0.3681   46.2196 N.am    1  ZINC001078110631   -0.6200
     11 C11        -1.1287    0.2639   45.4688 C.3     1  ZINC001078110631    0.1000
     12 C12        -1.0187    1.3067   44.3345 C.3     1  ZINC001078110631   -0.1300
     13 C13         0.5135    1.4273   44.1644 C.3     1  ZINC001078110631   -0.1600
     14 C14         1.0680    1.0171   45.5109 C.2     1  ZINC001078110631    0.5200
     15 O15         2.1982    1.2355   45.8925 O.2     1  ZINC001078110631   -0.5200
     16 C16        -0.4083    2.0766   49.3523 C.3     1  ZINC001078110631    0.0000
     17 C17        -1.1921    3.3174   49.8387 C.3     1  ZINC001078110631    0.1000
     18 H18        -0.9289    3.5510   50.8703 H       1  ZINC001078110631    0.0700
     19 O19        -0.9230    4.4374   48.9929 O.3     1  ZINC001078110631   -0.5500
     20 C20        -4.4125    4.1738   52.8782 C.ar    1  ZINC001078110631   -0.1900
     21 C21        -5.4100    3.2560   53.2157 C.ar    1  ZINC001078110631   -0.0300
     22 C22        -5.9956    3.3052   54.4619 C.ar    1  ZINC001078110631   -0.1700
     23 C23        -5.5976    4.2636   55.3824 C.ar    1  ZINC001078110631    0.1600
     24 F24        -6.1764    4.3058   56.6023 F       1  ZINC001078110631   -0.1200
     25 C25        -4.6088    5.1774   55.0561 C.ar    1  ZINC001078110631   -0.2000
     26 C26        -4.0099    5.1354   53.8117 C.ar    1  ZINC001078110631    0.2000
     27 F27        -3.0456    6.0265   53.4936 F       1  ZINC001078110631   -0.1000
     28 H28        -3.3740    2.1521   51.5998 H       1  ZINC001078110631    0.4000
     29 H29        -2.7179    0.7533   50.0314 H       1  ZINC001078110631    0.0500
     30 H30        -3.4971    1.3089   48.5177 H       1  ZINC001078110631    0.1000
     31 H31        -0.8419   -0.5075   49.3444 H       1  ZINC001078110631    0.0400
     32 H32        -1.7607   -0.6134   47.8237 H       1  ZINC001078110631    0.0800
     33 H33         1.0996    0.4204   48.0777 H       1  ZINC001078110631    0.0900
     34 H34         0.6448   -1.2037   47.5086 H       1  ZINC001078110631    0.0800
     35 H35        -1.2370   -0.7372   45.0516 H       1  ZINC001078110631    0.0700
     36 H36        -1.9747    0.4975   46.1152 H       1  ZINC001078110631    0.0800
     37 H37        -1.4849    0.9393   43.4203 H       1  ZINC001078110631    0.0900
     38 H38        -1.4538    2.2593   44.6368 H       1  ZINC001078110631    0.0800
     39 H39         0.8646    0.7545   43.3820 H       1  ZINC001078110631    0.1100
     40 H40         0.7924    2.4563   43.9377 H       1  ZINC001078110631    0.1000
     41 H41        -0.1055    1.4611   50.1993 H       1  ZINC001078110631    0.0600
     42 H42         0.4627    2.3817   48.7722 H       1  ZINC001078110631    0.0900
     43 H43        -1.2724    5.2751   49.3266 H       1  ZINC001078110631    0.3800
     44 H44        -5.7218    2.5090   52.5008 H       1  ZINC001078110631    0.1500
     45 H45        -6.7670    2.5958   54.7227 H       1  ZINC001078110631    0.1500
     46 H46        -4.3030    5.9215   55.7768 H       1  ZINC001078110631    0.1600
@<TRIPOS>BOND
     1     1     2    2
     2     2     3   am
     3     2    20    1
     4     3     4    1
     5     3    28    1
     6     4     5    1
     7     4    17    1
     8     4     6    1
     9     6     7    1
    10     6    29    1
    11     6    30    1
    12     7     8    1
    13     7    16    1
    14     8     9    1
    15     8    31    1
    16     8    32    1
    17     9    10    1
    18     9    33    1
    19     9    34    1
    20    10    14   am
    21    10    11    1
    22    11    12    1
    23    11    35    1
    24    11    36    1
    25    12    13    1
    26    12    37    1
    27    12    38    1
    28    13    14    1
    29    13    39    1
    30    13    40    1
    31    14    15    2
    32    16    17    1
    33    16    41    1
    34    16    42    1
    35    17    18    1
    36    17    19    1
    37    19    43    1
    38    20    26   ar
    39    20    21   ar
    40    21    22   ar
    41    21    44    1
    42    22    23   ar
    43    22    45    1
    44    23    24    1
    45    23    25   ar
    46    25    26   ar
    47    25    46    1
    48    26    27    1
@<TRIPOS>SUBSTRUCTURE
     1 ZINC001078110631        1 TEMP              0 ****  ****    0 ROOT


##########                                Name:    ZINC000469391664
##########                DOCK_Rotatable_Bonds:                   6
##########                         Heavy_Atoms:                  29
##########                    Molecular_Weight:             408.524
##########                DOCK_Rotatable_Bonds:                   6
##########                       Formal_Charge:         -0.00999999
##########                     HBond_Acceptors:                   7
##########                        HBond_Donors:                   0
##########                         Heavy_Atoms:                  29
##########                          Grid_Score:          -29.730326
##########                     Grid_vdw_energy:          -30.119593
##########                      Grid_es_energy:            0.389267
##########           Internal_energy_repulsive:           20.490883

@<TRIPOS>MOLECULE
ZINC000469391664
 53 56 1 0 0
SMALL
USER_CHARGES


@<TRIPOS>ATOM
      1 C1         -0.9130    0.4544   45.9847 C.3     1  ZINC000469391664   -0.1500
      2 C2         -1.0518    1.3272   47.2336 C.3     1  ZINC000469391664   -0.1000
      3 H3         -1.7919    0.8884   47.9028 H       1  ZINC000469391664    0.0800
      4 C4         -1.5021    2.7320   46.8263 C.3     1  ZINC000469391664   -0.1300
      5 C5         -1.6734    3.5930   48.0818 C.3     1  ZINC000469391664    0.1100
      6 N6         -0.4228    3.5597   48.8524 N.am    1  ZINC000469391664   -0.6100
      7 C7          0.1900    4.7035   49.2165 C.2     1  ZINC000469391664    0.5600
      8 O8         -0.2917    5.7765   48.9075 O.2     1  ZINC000469391664   -0.5000
      9 C9          1.4450    4.6539   49.9900 C.ar    1  ZINC000469391664   -0.1100
     10 C10         2.6769    4.6840   49.3329 C.ar    1  ZINC000469391664   -0.0900
     11 C11         3.8461    4.6378   50.0614 C.ar    1  ZINC000469391664   -0.1000
     12 C12         3.8064    4.5610   51.4441 C.ar    1  ZINC000469391664   -0.0900
     13 C13         2.5963    4.5299   52.1078 C.ar    1  ZINC000469391664   -0.1000
     14 C14         1.4083    4.5819   51.3910 C.ar    1  ZINC000469391664    0.1500
     15 N15         0.1872    4.5507   52.0579 N.am    1  ZINC000469391664   -0.5800
     16 C16        -0.6146    5.7712   52.1757 C.3     1  ZINC000469391664    0.0900
     17 C17        -0.2577    3.3976   52.5956 C.2     1  ZINC000469391664    0.6100
     18 O18         0.4085    2.3838   52.4979 O.2     1  ZINC000469391664   -0.5200
     19 C19        -1.5434    3.3648   53.2978 C.2     1  ZINC000469391664   -0.2600
     20 C20        -2.7452    3.7461   52.7698 C.2     1  ZINC000469391664   -0.0500
     21 C21        -3.7925    3.6117   53.6498 C.2     1  ZINC000469391664   -0.1500
     22 C22        -3.4627    3.1372   54.8568 C.2     1  ZINC000469391664   -0.2600
     23 S23        -1.7887    2.8214   54.9519 S.3     1  ZINC000469391664    0.2300
     24 C24         0.1468    2.2559   49.2186 C.3     1  ZINC000469391664    0.1000
     25 C25         0.2979    1.4102   47.9502 C.3     1  ZINC000469391664    0.1300
     26 H26         1.0326    1.8718   47.2906 H       1  ZINC000469391664    0.1000
     27 N27         0.7436    0.0622   48.3115 N.pl3   1  ZINC000469391664   -0.4500
     28 C28        -0.0430   -0.9547   48.7813 C.2     1  ZINC000469391664   -0.0500
     29 C29         0.7664   -2.0120   48.9830 C.2     1  ZINC000469391664   -0.0300
     30 N30         2.0131   -1.6505   48.6456 N.2     1  ZINC000469391664   -0.4900
     31 C31         2.0063   -0.4110   48.2376 C.2     1  ZINC000469391664    0.1800
     32 H32        -0.5929   -0.5465   46.2747 H       1  ZINC000469391664    0.0600
     33 H33        -1.8743    0.3947   45.4744 H       1  ZINC000469391664    0.0600
     34 H34        -0.1729    0.8929   45.3154 H       1  ZINC000469391664    0.0600
     35 H35        -0.7504    3.1810   46.1772 H       1  ZINC000469391664    0.0700
     36 H36        -2.4519    2.6700   46.2954 H       1  ZINC000469391664    0.0900
     37 H37        -1.8974    4.6198   47.7929 H       1  ZINC000469391664    0.1000
     38 H38        -2.4871    3.1962   48.6888 H       1  ZINC000469391664    0.0800
     39 H39         2.7134    4.7431   48.2552 H       1  ZINC000469391664    0.1400
     40 H40         4.7979    4.6612   49.5517 H       1  ZINC000469391664    0.1400
     41 H41         4.7279    4.5249   52.0062 H       1  ZINC000469391664    0.1400
     42 H42         2.5737    4.4696   53.1858 H       1  ZINC000469391664    0.1400
     43 H43        -1.3505    5.8013   51.3721 H       1  ZINC000469391664    0.0600
     44 H44        -1.1268    5.7781   53.1378 H       1  ZINC000469391664    0.0900
     45 H45         0.0369    6.6421   52.1046 H       1  ZINC000469391664    0.0700
     46 H46        -2.8602    4.1165   51.7618 H       1  ZINC000469391664    0.1500
     47 H47        -4.8075    3.8706   53.3865 H       1  ZINC000469391664    0.1400
     48 H48        -4.1634    2.9721   55.6620 H       1  ZINC000469391664    0.1600
     49 H49         1.1238    2.4005   49.6798 H       1  ZINC000469391664    0.1000
     50 H50        -0.5185    1.7500   49.9183 H       1  ZINC000469391664    0.0800
     51 H51        -1.1079   -0.9164   48.9569 H       1  ZINC000469391664    0.1700
     52 H52         0.4644   -2.9811   49.3519 H       1  ZINC000469391664    0.1700
     53 H53         2.8688    0.1463   47.9028 H       1  ZINC000469391664    0.2000
@<TRIPOS>BOND
     1     1     2    1
     2     1    32    1
     3     1    33    1
     4     1    34    1
     5     2     3    1
     6     2    25    1
     7     2     4    1
     8     4     5    1
     9     4    35    1
    10     4    36    1
    11     5     6    1
    12     5    37    1
    13     5    38    1
    14     6     7   am
    15     6    24    1
    16     7     8    2
    17     7     9    1
    18     9    14   ar
    19     9    10   ar
    20    10    11   ar
    21    10    39    1
    22    11    12   ar
    23    11    40    1
    24    12    13   ar
    25    12    41    1
    26    13    14   ar
    27    13    42    1
    28    14    15    1
    29    15    16    1
    30    15    17   am
    31    16    43    1
    32    16    44    1
    33    16    45    1
    34    17    18    2
    35    17    19    1
    36    19    23    1
    37    19    20    2
    38    20    21    1
    39    20    46    1
    40    21    22    2
    41    21    47    1
    42    22    23    1
    43    22    48    1
    44    24    25    1
    45    24    49    1
    46    24    50    1
    47    25    26    1
    48    25    27    1
    49    27    31    1
    50    27    28    1
    51    28    29    2
    52    28    51    1
    53    29    30    1
    54    29    52    1
    55    30    31    2
    56    31    53    1
@<TRIPOS>SUBSTRUCTURE
     1 ZINC000469391664        1 TEMP              0 ****  ****    0 ROOT


##########                                Name:    ZINC000373864439
##########                DOCK_Rotatable_Bonds:                   7
##########                         Heavy_Atoms:                  23
##########                    Molecular_Weight:              344.45
##########                DOCK_Rotatable_Bonds:                   7
##########                       Formal_Charge:          -0.0300001
##########                     HBond_Acceptors:                   7
##########                        HBond_Donors:                   1
##########                         Heavy_Atoms:                  23
##########                          Grid_Score:          -29.723640
##########                     Grid_vdw_energy:          -29.560925
##########                      Grid_es_energy:           -0.162717
##########           Internal_energy_repulsive:           24.436430

@<TRIPOS>MOLECULE
ZINC000373864439
 48 49 1 0 0
SMALL
USER_CHARGES


@<TRIPOS>ATOM
      1 C1         -3.9993    3.8330   54.0915 C.3     1  ZINC000373864439   -0.1500
      2 C2         -4.5408    4.6943   52.9487 C.3     1  ZINC000373864439   -0.6300
      3 S3         -3.2690    4.8675   51.6669 S.o2    1  ZINC000373864439    2.6100
      4 O4         -3.7910    5.5511   50.5358 O.2     1  ZINC000373864439   -0.9500
      5 O5         -2.0276    5.2480   52.2443 O.2     1  ZINC000373864439   -0.9600
      6 N6         -3.0124    3.3228   51.1281 N.am    1  ZINC000373864439   -1.1200
      7 C7         -2.0310    3.0695   50.0703 C.3     1  ZINC000373864439    0.1100
      8 C8         -2.4633    1.8492   49.2551 C.3     1  ZINC000373864439    0.0500
      9 N9         -1.5664    1.6871   48.1030 N.3     1  ZINC000373864439   -0.5300
     10 C10        -2.0471    2.4581   46.9493 C.3     1  ZINC000373864439    0.0400
     11 C11        -1.0176    2.3837   45.8195 C.3     1  ZINC000373864439   -0.1300
     12 C12        -0.8042    0.9196   45.4256 C.3     1  ZINC000373864439    0.1800
     13 F13        -2.0040    0.3856   44.9432 F       1  ZINC000373864439   -0.2100
     14 C14         0.2516    0.8351   44.3535 C.ar    1  ZINC000373864439   -0.1500
     15 C15        -0.0525    0.2795   43.1262 C.ar    1  ZINC000373864439   -0.0700
     16 C16         0.9160    0.2013   42.1421 C.ar    1  ZINC000373864439   -0.1600
     17 C17         2.1904    0.6792   42.3839 C.ar    1  ZINC000373864439   -0.0700
     18 C18         2.4997    1.2364   43.6098 C.ar    1  ZINC000373864439   -0.2100
     19 C19         1.5285    1.3208   44.5967 C.ar    1  ZINC000373864439    0.1400
     20 O20         1.8300    1.8683   45.8034 O.3     1  ZINC000373864439   -0.3100
     21 C21         3.1553    2.3752   45.9728 C.3     1  ZINC000373864439    0.0200
     22 C22        -0.3503    0.1291   46.6559 C.3     1  ZINC000373864439   -0.1300
     23 C23        -1.3993    0.2688   47.7614 C.3     1  ZINC000373864439    0.0600
     24 H24        -3.1160    4.3085   54.5179 H       1  ZINC000373864439    0.0700
     25 H25        -4.7635    3.7289   54.8616 H       1  ZINC000373864439    0.0800
     26 H26        -3.7325    2.8478   53.7089 H       1  ZINC000373864439    0.0700
     27 H27        -5.4240    4.2187   52.5223 H       1  ZINC000373864439    0.1300
     28 H28        -4.8076    5.6795   53.3313 H       1  ZINC000373864439    0.1300
     29 H29        -3.5119    2.5856   51.5128 H       1  ZINC000373864439    0.4200
     30 H30        -1.9685    3.9397   49.4167 H       1  ZINC000373864439    0.0700
     31 H31        -1.0551    2.8804   50.5177 H       1  ZINC000373864439    0.0900
     32 H32        -2.4150    0.9582   49.8812 H       1  ZINC000373864439    0.0900
     33 H33        -3.4851    1.9909   48.9029 H       1  ZINC000373864439    0.0400
     34 H34        -2.9947    2.0437   46.6049 H       1  ZINC000373864439    0.0400
     35 H35        -2.1907    3.4982   47.2418 H       1  ZINC000373864439    0.0900
     36 H36        -1.3817    2.9430   44.9578 H       1  ZINC000373864439    0.0800
     37 H37        -0.0737    2.8105   46.1587 H       1  ZINC000373864439    0.1000
     38 H38        -1.0474   -0.0947   42.9348 H       1  ZINC000373864439    0.1300
     39 H39         0.6764   -0.2342   41.1833 H       1  ZINC000373864439    0.1300
     40 H40         2.9452    0.6168   41.6139 H       1  ZINC000373864439    0.1300
     41 H41         3.4955    1.6093   43.7983 H       1  ZINC000373864439    0.1300
     42 H42         3.2626    2.7830   46.9779 H       1  ZINC000373864439    0.1000
     43 H43         3.8740    1.5682   45.8296 H       1  ZINC000373864439    0.0600
     44 H44         3.3403    3.1608   45.2402 H       1  ZINC000373864439    0.0600
     45 H45        -0.2380   -0.9225   46.3917 H       1  ZINC000373864439    0.0800
     46 H46         0.6040    0.5205   47.0082 H       1  ZINC000373864439    0.1000
     47 H47        -1.0724   -0.2812   48.6438 H       1  ZINC000373864439    0.0800
     48 H48        -2.3498   -0.1354   47.4133 H       1  ZINC000373864439    0.0400
@<TRIPOS>BOND
     1     1     2    1
     2     1    24    1
     3     1    25    1
     4     1    26    1
     5     2     3    1
     6     2    27    1
     7     2    28    1
     8     3     4    2
     9     3     5    2
    10     3     6   am
    11     6     7    1
    12     6    29    1
    13     7     8    1
    14     7    30    1
    15     7    31    1
    16     8     9    1
    17     8    32    1
    18     8    33    1
    19     9    23    1
    20     9    10    1
    21    10    11    1
    22    10    34    1
    23    10    35    1
    24    11    12    1
    25    11    36    1
    26    11    37    1
    27    12    13    1
    28    12    14    1
    29    12    22    1
    30    14    19   ar
    31    14    15   ar
    32    15    16   ar
    33    15    38    1
    34    16    17   ar
    35    16    39    1
    36    17    18   ar
    37    17    40    1
    38    18    19   ar
    39    18    41    1
    40    19    20    1
    41    20    21    1
    42    21    42    1
    43    21    43    1
    44    21    44    1
    45    22    23    1
    46    22    45    1
    47    22    46    1
    48    23    47    1
    49    23    48    1
@<TRIPOS>SUBSTRUCTURE
     1 ZINC000373864439        1 TEMP              0 ****  ****    0 ROOT


##########                                Name:    ZINC000477589488
##########                DOCK_Rotatable_Bonds:                   6
##########                         Heavy_Atoms:                  32
##########                    Molecular_Weight:             423.517
##########                DOCK_Rotatable_Bonds:                   6
##########                       Formal_Charge:        -8.19564e-07
##########                     HBond_Acceptors:                   6
##########                        HBond_Donors:                   1
##########                         Heavy_Atoms:                  32
##########                          Grid_Score:          -29.710806
##########                     Grid_vdw_energy:          -28.024458
##########                      Grid_es_energy:           -1.686348
##########           Internal_energy_repulsive:           23.420689

@<TRIPOS>MOLECULE
ZINC000477589488
 57 61 1 0 0
SMALL
USER_CHARGES


@<TRIPOS>ATOM
      1 O1         -2.3564    2.2211   48.4995 O.2     1  ZINC000477589488   -0.5800
      2 C2         -1.4609    2.9782   48.8213 C.2     1  ZINC000477589488    0.7100
      3 N3         -0.2765    2.9323   48.1799 N.am    1  ZINC000477589488   -0.7400
      4 C4         -0.0658    1.9661   47.0990 C.3     1  ZINC000477589488    0.2500
      5 H5         -0.9599    1.9155   46.4775 H       1  ZINC000477589488    0.1100
      6 C6          0.2147    0.6073   47.6872 C.ar    1  ZINC000477589488   -0.0900
      7 C7          1.4723    0.3142   48.1807 C.ar    1  ZINC000477589488   -0.1000
      8 C8          1.7297   -0.9322   48.7203 C.ar    1  ZINC000477589488   -0.1200
      9 C9          0.7294   -1.8852   48.7670 C.ar    1  ZINC000477589488   -0.1200
     10 C10        -0.5284   -1.5917   48.2744 C.ar    1  ZINC000477589488   -0.1200
     11 C11        -0.7870   -0.3438   47.7387 C.ar    1  ZINC000477589488   -0.1000
     12 C12         1.1065    2.4011   46.2578 C.ar    1  ZINC000477589488   -0.0700
     13 C13         1.3084    1.8419   44.9847 C.ar    1  ZINC000477589488   -0.0400
     14 C14         0.4326    0.8729   44.4660 C.ar    1  ZINC000477589488   -0.1100
     15 C15         0.6595    0.3537   43.2287 C.ar    1  ZINC000477589488   -0.1100
     16 C16         1.7498    0.7679   42.4654 C.ar    1  ZINC000477589488   -0.1100
     17 C17         2.6190    1.7037   42.9352 C.ar    1  ZINC000477589488   -0.1100
     18 C18         2.4169    2.2636   44.2083 C.ar    1  ZINC000477589488   -0.0500
     19 C19         3.2923    3.2325   44.7269 C.ar    1  ZINC000477589488   -0.1000
     20 C20         3.0646    3.7528   45.9640 C.ar    1  ZINC000477589488   -0.1100
     21 C21         1.9722    3.3420   46.7252 C.ar    1  ZINC000477589488   -0.1100
     22 N22        -1.6548    3.8670   49.8157 N.am    1  ZINC000477589488   -0.6300
     23 C23        -2.9375    3.9298   50.5327 C.3     1  ZINC000477589488    0.1300
     24 C24        -2.6571    3.8709   52.0380 C.3     1  ZINC000477589488    0.0500
     25 N25        -1.6939    4.9211   52.3949 N.3     1  ZINC000477589488   -0.4700
     26 C26        -1.5374    5.0059   53.7740 C.ar    1  ZINC000477589488    0.2500
     27 C27        -1.6641    3.8647   54.5650 C.ar    1  ZINC000477589488   -0.1300
     28 C28        -1.4990    4.0027   55.9342 C.ar    1  ZINC000477589488   -0.0900
     29 C29        -1.2180    5.2667   56.4334 C.ar    1  ZINC000477589488    0.0200
     30 N30        -1.1155    6.2924   55.6116 N.ar    1  ZINC000477589488   -0.2200
     31 N31        -1.2617    6.1710   54.3422 N.ar    1  ZINC000477589488   -0.2800
     32 C32        -0.4013    4.7067   51.7306 C.3     1  ZINC000477589488    0.0400
     33 C33        -0.5872    4.7958   50.2167 C.3     1  ZINC000477589488    0.1200
     34 H34         0.4364    3.5389   48.4339 H       1  ZINC000477589488    0.3900
     35 H35         2.2538    1.0586   48.1442 H       1  ZINC000477589488    0.1100
     36 H36         2.7124   -1.1616   49.1051 H       1  ZINC000477589488    0.1200
     37 H37         0.9307   -2.8592   49.1879 H       1  ZINC000477589488    0.1200
     38 H38        -1.3098   -2.3363   48.3105 H       1  ZINC000477589488    0.1200
     39 H39        -1.7697   -0.1144   47.3538 H       1  ZINC000477589488    0.1200
     40 H40        -0.4160    0.5418   45.0463 H       1  ZINC000477589488    0.1300
     41 H41        -0.0150   -0.3908   42.8324 H       1  ZINC000477589488    0.1300
     42 H42         1.9072    0.3396   41.4865 H       1  ZINC000477589488    0.1300
     43 H43         3.4598    2.0145   42.3327 H       1  ZINC000477589488    0.1300
     44 H44         4.1417    3.5623   44.1472 H       1  ZINC000477589488    0.1300
     45 H45         3.7394    4.4971   46.3604 H       1  ZINC000477589488    0.1300
     46 H46         1.8142    3.7710   47.7036 H       1  ZINC000477589488    0.1200
     47 H47        -3.4465    4.8629   50.2912 H       1  ZINC000477589488    0.0800
     48 H48        -3.5607    3.0838   50.2429 H       1  ZINC000477589488    0.1100
     49 H49        -3.5856    4.0270   52.5873 H       1  ZINC000477589488    0.1000
     50 H50        -2.2428    2.8955   52.2929 H       1  ZINC000477589488    0.0600
     51 H51        -1.8844    2.9035   54.1246 H       1  ZINC000477589488    0.1500
     52 H52        -1.5869    3.1516   56.5933 H       1  ZINC000477589488    0.1500
     53 H53        -1.0837    5.4102   57.4953 H       1  ZINC000477589488    0.1700
     54 H54         0.3061    5.4690   52.0570 H       1  ZINC000477589488    0.1000
     55 H55        -0.0184    3.7197   51.9898 H       1  ZINC000477589488    0.0600
     56 H56         0.3428    4.5248   49.7172 H       1  ZINC000477589488    0.0800
     57 H57        -0.8713    5.8115   49.9419 H       1  ZINC000477589488    0.0900
@<TRIPOS>BOND
     1     1     2    2
     2     2     3   am
     3     2    22   am
     4     3     4    1
     5     3    34    1
     6     4     5    1
     7     4     6    1
     8     4    12    1
     9     6    11   ar
    10     6     7   ar
    11     7     8   ar
    12     7    35    1
    13     8     9   ar
    14     8    36    1
    15     9    10   ar
    16     9    37    1
    17    10    11   ar
    18    10    38    1
    19    11    39    1
    20    12    21   ar
    21    12    13   ar
    22    13    18   ar
    23    13    14   ar
    24    14    15   ar
    25    14    40    1
    26    15    16   ar
    27    15    41    1
    28    16    17   ar
    29    16    42    1
    30    17    18   ar
    31    17    43    1
    32    18    19   ar
    33    19    20   ar
    34    19    44    1
    35    20    21   ar
    36    20    45    1
    37    21    46    1
    38    22    33    1
    39    22    23    1
    40    23    24    1
    41    23    47    1
    42    23    48    1
    43    24    25    1
    44    24    49    1
    45    24    50    1
    46    25    26    1
    47    25    32    1
    48    26    31   ar
    49    26    27   ar
    50    27    28   ar
    51    27    51    1
    52    28    29   ar
    53    28    52    1
    54    29    30   ar
    55    29    53    1
    56    30    31   ar
    57    32    33    1
    58    32    54    1
    59    32    55    1
    60    33    56    1
    61    33    57    1
@<TRIPOS>SUBSTRUCTURE
     1 ZINC000477589488        1 TEMP              0 ****  ****    0 ROOT


##########                                Name:    ZINC001053433946
##########                DOCK_Rotatable_Bonds:                   6
##########                         Heavy_Atoms:                  24
##########                    Molecular_Weight:             337.419
##########                DOCK_Rotatable_Bonds:                   6
##########                       Formal_Charge:               -0.02
##########                     HBond_Acceptors:                   7
##########                        HBond_Donors:                   2
##########                         Heavy_Atoms:                  24
##########                          Grid_Score:          -29.704531
##########                     Grid_vdw_energy:          -28.892828
##########                      Grid_es_energy:           -0.811703
##########           Internal_energy_repulsive:           13.895990

@<TRIPOS>MOLECULE
ZINC001053433946
 51 54 1 0 0
SMALL
USER_CHARGES


@<TRIPOS>ATOM
      1 N1         -0.1555    5.7085   55.9187 N.am    1  ZINC001053433946   -0.8300
      2 C2         -1.3583    5.2018   56.2547 C.2     1  ZINC001053433946    0.5600
      3 O3         -2.2940    5.9457   56.4600 O.2     1  ZINC001053433946   -0.5500
      4 C4         -1.5407    3.7107   56.3754 C.3     1  ZINC001053433946   -0.1600
      5 H5         -2.3079    3.3863   57.0784 H       1  ZINC001053433946    0.1400
      6 C6         -0.2956    2.8329   56.2337 C.3     1  ZINC001053433946   -0.1300
      7 C7         -1.3380    2.8698   55.1133 C.3     1  ZINC001053433946   -0.1700
      8 H8         -1.9714    1.9920   54.9862 H       1  ZINC001053433946    0.1400
      9 C9         -0.9705    3.5953   53.8447 C.2     1  ZINC001053433946    0.5400
     10 O10         0.1945    3.7105   53.5277 O.2     1  ZINC001053433946   -0.5200
     11 N11        -1.9365    4.1162   53.0623 N.am    1  ZINC001053433946   -0.6100
     12 C12        -3.3569    3.9900   53.4244 C.3     1  ZINC001053433946    0.0700
     13 C13        -4.1193    3.4080   52.2296 C.3     1  ZINC001053433946    0.0500
     14 O14        -3.8674    4.2091   51.0708 O.3     1  ZINC001053433946   -0.3400
     15 C15        -2.4927    4.2782   50.7023 C.3     1  ZINC001053433946    0.0800
     16 C16        -1.9551    2.9855   50.0740 C.3     1  ZINC001053433946   -0.0100
     17 N17        -2.3471    3.5757   48.7741 N.3     1  ZINC001053433946   -0.4700
     18 C18        -1.3090    3.3510   47.7593 C.3     1  ZINC001053433946    0.0200
     19 C19        -1.6993    2.1567   46.8862 C.3     1  ZINC001053433946   -0.1200
     20 H20        -2.7639    2.2051   46.6577 H       1  ZINC001053433946    0.0800
     21 C21        -0.8941    2.1901   45.5835 C.3     1  ZINC001053433946   -0.1200
     22 C22        -1.2360    0.9493   44.7530 C.3     1  ZINC001053433946   -0.1600
     23 C23        -0.9480   -0.3052   45.5818 C.3     1  ZINC001053433946    0.0600
     24 O24        -1.7049   -0.2582   46.7932 O.3     1  ZINC001053433946   -0.3800
     25 C25        -1.3950    0.8556   47.6333 C.3     1  ZINC001053433946    0.0700
     26 C26        -2.2495    4.9405   49.3397 C.3     1  ZINC001053433946    0.0200
     27 C27        -1.6031    4.8352   51.8202 C.3     1  ZINC001053433946    0.1000
     28 H28        -0.0379    6.6683   55.8422 H       1  ZINC001053433946    0.4000
     29 H29         0.5935    5.1137   55.7573 H       1  ZINC001053433946    0.4000
     30 H30         0.6555    3.3339   56.0534 H       1  ZINC001053433946    0.1100
     31 H31        -0.2439    1.9308   56.8434 H       1  ZINC001053433946    0.1200
     32 H32        -3.4578    3.3244   54.2818 H       1  ZINC001053433946    0.1000
     33 H33        -3.7596    4.9722   53.6719 H       1  ZINC001053433946    0.0800
     34 H34        -3.7838    2.3873   52.0462 H       1  ZINC001053433946    0.0600
     35 H35        -5.1878    3.4067   52.4456 H       1  ZINC001053433946    0.1100
     36 H36        -0.8794    2.8543   50.1906 H       1  ZINC001053433946    0.0800
     37 H37        -2.5252    2.0961   50.3426 H       1  ZINC001053433946    0.0900
     38 H38        -1.2113    4.2400   47.1362 H       1  ZINC001053433946    0.0500
     39 H39        -0.3583    3.1460   48.2515 H       1  ZINC001053433946    0.0800
     40 H40        -1.1493    3.0876   45.0201 H       1  ZINC001053433946    0.0700
     41 H41         0.1713    2.1929   45.8134 H       1  ZINC001053433946    0.0700
     42 H42        -2.2913    0.9722   44.4812 H       1  ZINC001053433946    0.0700
     43 H43        -0.6265    0.9366   43.8493 H       1  ZINC001053433946    0.0700
     44 H44        -1.2297   -1.1903   45.0114 H       1  ZINC001053433946    0.0900
     45 H45         0.1150   -0.3483   45.8189 H       1  ZINC001053433946    0.0500
     46 H46        -0.3379    0.8286   47.8976 H       1  ZINC001053433946    0.0500
     47 H47        -1.9980    0.8058   48.5400 H       1  ZINC001053433946    0.1000
     48 H48        -3.0534    5.6055   49.0245 H       1  ZINC001053433946    0.1000
     49 H49        -1.2608    5.3883   49.2389 H       1  ZINC001053433946    0.0900
     50 H50        -1.7908    5.9019   51.9432 H       1  ZINC001053433946    0.0800
     51 H51        -0.5543    4.6715   51.5724 H       1  ZINC001053433946    0.1000
@<TRIPOS>BOND
     1     1     2   am
     2     1    28    1
     3     1    29    1
     4     2     3    2
     5     2     4    1
     6     4     5    1
     7     4     7    1
     8     4     6    1
     9     6     7    1
    10     6    30    1
    11     6    31    1
    12     7     8    1
    13     7     9    1
    14     9    10    2
    15     9    11   am
    16    11    27    1
    17    11    12    1
    18    12    13    1
    19    12    32    1
    20    12    33    1
    21    13    14    1
    22    13    34    1
    23    13    35    1
    24    14    15    1
    25    15    26    1
    26    15    16    1
    27    15    27    1
    28    16    17    1
    29    16    36    1
    30    16    37    1
    31    17    18    1
    32    17    26    1
    33    18    19    1
    34    18    38    1
    35    18    39    1
    36    19    20    1
    37    19    25    1
    38    19    21    1
    39    21    22    1
    40    21    40    1
    41    21    41    1
    42    22    23    1
    43    22    42    1
    44    22    43    1
    45    23    24    1
    46    23    44    1
    47    23    45    1
    48    24    25    1
    49    25    46    1
    50    25    47    1
    51    26    48    1
    52    26    49    1
    53    27    50    1
    54    27    51    1
@<TRIPOS>SUBSTRUCTURE
     1 ZINC001053433946        1 TEMP              0 ****  ****    0 ROOT


##########                                Name:    ZINC000573650873
##########                DOCK_Rotatable_Bonds:                  10
##########                         Heavy_Atoms:                  28
##########                    Molecular_Weight:             418.843
##########                DOCK_Rotatable_Bonds:                  10
##########                       Formal_Charge:          -0.0500001
##########                     HBond_Acceptors:                   9
##########                        HBond_Donors:                   1
##########                         Heavy_Atoms:                  28
##########                          Grid_Score:          -29.700470
##########                     Grid_vdw_energy:          -29.208496
##########                      Grid_es_energy:           -0.491973
##########           Internal_energy_repulsive:           15.241850

@<TRIPOS>MOLECULE
ZINC000573650873
 50 51 1 0 0
SMALL
USER_CHARGES


@<TRIPOS>ATOM
      1 C1          3.5963    2.7999   46.6037 C.3     1  ZINC000573650873   -0.1400
      2 C2          3.1203    1.9289   47.7681 C.3     1  ZINC000573650873    0.0100
      3 C3          2.3295    0.7375   47.2239 C.3     1  ZINC000573650873   -0.1400
      4 C4          4.3313    1.4212   48.5535 C.3     1  ZINC000573650873   -0.1500
      5 C5          2.2378    2.7444   48.6775 C.2     1  ZINC000573650873   -0.0100
      6 C6          1.2218    2.2839   49.4436 C.2     1  ZINC000573650873   -0.1800
      7 C7          0.7284    3.4489   50.0943 C.2     1  ZINC000573650873   -0.0300
      8 C8         -0.3954    3.5223   51.0595 C.2     1  ZINC000573650873    0.6000
      9 O9         -0.1708    3.6910   52.2416 O.2     1  ZINC000573650873   -0.5100
     10 N10        -1.6657    3.4020   50.6254 N.am    1  ZINC000573650873   -0.5900
     11 C11        -1.9365    3.1987   49.2000 C.3     1  ZINC000573650873    0.1200
     12 C12        -2.3190    1.7374   48.9570 C.3     1  ZINC000573650873   -0.1000
     13 C13        -1.9355    1.3444   47.5537 C.ar    1  ZINC000573650873   -0.0800
     14 C14        -1.9485    2.2885   46.5438 C.ar    1  ZINC000573650873   -0.1000
     15 C15        -1.5969    1.9288   45.2564 C.ar    1  ZINC000573650873   -0.1100
     16 C16        -1.2318    0.6236   44.9786 C.ar    1  ZINC000573650873   -0.0400
     17 Cl17       -0.7894    0.1711   43.3620 Cl      1  ZINC000573650873   -0.0700
     18 C18        -1.2189   -0.3208   45.9896 C.ar    1  ZINC000573650873   -0.1100
     19 C19        -1.5653    0.0415   47.2777 C.ar    1  ZINC000573650873   -0.1000
     20 C20        -2.7756    3.4747   51.5788 C.3     1  ZINC000573650873    0.0700
     21 C21        -3.0771    4.9401   51.8997 C.3     1  ZINC000573650873    0.0600
     22 H22        -2.1520    5.4518   52.1646 H       1  ZINC000573650873    0.1400
     23 O23        -3.6583    5.5684   50.7554 O.3     1  ZINC000573650873   -0.5200
     24 C24        -4.0551    5.0141   53.0740 C.3     1  ZINC000573650873    0.4300
     25 F25        -5.1217    4.1374   52.8486 F       1  ZINC000573650873   -0.1700
     26 F26        -3.3956    4.6525   54.2536 F       1  ZINC000573650873   -0.1700
     27 F27        -4.5422    6.3201   53.1937 F       1  ZINC000573650873   -0.1800
     28 N28         1.4673    4.4435   49.6693 N.2     1  ZINC000573650873   -0.3400
     29 O29         2.3102    4.0658   48.8891 O.3     1  ZINC000573650873    0.1300
     30 H30         2.7335    3.1615   46.0442 H       1  ZINC000573650873    0.0600
     31 H31         4.1597    3.6486   46.9915 H       1  ZINC000573650873    0.0600
     32 H32         4.2347    2.2100   45.9460 H       1  ZINC000573650873    0.0700
     33 H33         2.9679    0.1477   46.5662 H       1  ZINC000573650873    0.0700
     34 H34         1.9905    0.1171   48.0535 H       1  ZINC000573650873    0.0600
     35 H35         1.4668    1.0992   46.6644 H       1  ZINC000573650873    0.0600
     36 H36         4.8947    2.2700   48.9412 H       1  ZINC000573650873    0.0600
     37 H37         3.9923    0.8008   49.3830 H       1  ZINC000573650873    0.0600
     38 H38         4.9697    0.8314   47.8957 H       1  ZINC000573650873    0.0700
     39 H39         0.8676    1.2681   49.5387 H       1  ZINC000573650873    0.1800
     40 H40        -2.7574    3.8455   48.8903 H       1  ZINC000573650873    0.0900
     41 H41        -1.0446    3.4418   48.6225 H       1  ZINC000573650873    0.1000
     42 H42        -1.7933    1.1010   49.6690 H       1  ZINC000573650873    0.0800
     43 H43        -3.3945    1.6168   49.0871 H       1  ZINC000573650873    0.0800
     44 H44        -2.2340    3.3073   46.7609 H       1  ZINC000573650873    0.1300
     45 H45        -1.6076    2.6663   44.4676 H       1  ZINC000573650873    0.1300
     46 H46        -0.9342   -1.3399   45.7732 H       1  ZINC000573650873    0.1300
     47 H47        -1.5550   -0.6956   48.0670 H       1  ZINC000573650873    0.1300
     48 H48        -3.6595    3.0088   51.1436 H       1  ZINC000573650873    0.1000
     49 H49        -2.5026    2.9509   52.4949 H       1  ZINC000573650873    0.1200
     50 H50        -4.3573    5.0494   50.3343 H       1  ZINC000573650873    0.3900
@<TRIPOS>BOND
     1     1     2    1
     2     1    30    1
     3     1    31    1
     4     1    32    1
     5     2     3    1
     6     2     4    1
     7     2     5    1
     8     3    33    1
     9     3    34    1
    10     3    35    1
    11     4    36    1
    12     4    37    1
    13     4    38    1
    14     5    29    1
    15     5     6    2
    16     6     7    1
    17     6    39    1
    18     7     8    1
    19     7    28    2
    20     8     9    2
    21     8    10   am
    22    10    11    1
    23    10    20    1
    24    11    12    1
    25    11    40    1
    26    11    41    1
    27    12    13    1
    28    12    42    1
    29    12    43    1
    30    13    19   ar
    31    13    14   ar
    32    14    15   ar
    33    14    44    1
    34    15    16   ar
    35    15    45    1
    36    16    17    1
    37    16    18   ar
    38    18    19   ar
    39    18    46    1
    40    19    47    1
    41    20    21    1
    42    20    48    1
    43    20    49    1
    44    21    22    1
    45    21    23    1
    46    21    24    1
    47    23    50    1
    48    24    25    1
    49    24    26    1
    50    24    27    1
    51    28    29    1
@<TRIPOS>SUBSTRUCTURE
     1 ZINC000573650873        1 TEMP              0 ****  ****    0 ROOT


##########                                Name:    ZINC000076573199
##########                DOCK_Rotatable_Bonds:                  10
##########                         Heavy_Atoms:                  24
##########                    Molecular_Weight:             333.431
##########                DOCK_Rotatable_Bonds:                  10
##########                       Formal_Charge:          -0.0200009
##########                     HBond_Acceptors:                   6
##########                        HBond_Donors:                   3
##########                         Heavy_Atoms:                  24
##########                          Grid_Score:          -29.688267
##########                     Grid_vdw_energy:          -27.519781
##########                      Grid_es_energy:           -2.168486
##########           Internal_energy_repulsive:           13.234102

@<TRIPOS>MOLECULE
ZINC000076573199
 51 51 1 0 0
SMALL
USER_CHARGES


@<TRIPOS>ATOM
      1 C1         -5.9489    4.5609   57.7755 C.3     1  ZINC000076573199   -0.1500
      2 C2         -5.2298    3.3968   57.0906 C.3     1  ZINC000076573199   -0.1200
      3 C3         -5.4586    3.4740   55.5798 C.3     1  ZINC000076573199   -0.1000
      4 H4         -5.3736    4.5100   55.2519 H       1  ZINC000076573199    0.0700
      5 C5         -6.8561    2.9470   55.2480 C.3     1  ZINC000076573199   -0.1500
      6 C6         -4.4090    2.6238   54.8610 C.3     1  ZINC000076573199   -0.1200
      7 C7         -3.1043    3.4144   54.7457 C.3     1  ZINC000076573199    0.1400
      8 H8         -3.2397    4.4046   55.1806 H       1  ZINC000076573199    0.1000
      9 C9         -1.9928    2.6762   55.4944 C.3     1  ZINC000076573199   -0.1700
     10 N10        -2.7370    3.5473   53.3337 N.am    1  ZINC000076573199   -0.6900
     11 C11        -3.2647    4.5404   52.5907 C.2     1  ZINC000076573199    0.5100
     12 O12        -4.0453    5.3235   53.0910 O.2     1  ZINC000076573199   -0.5100
     13 C13        -2.8890    4.6769   51.1517 C.2     1  ZINC000076573199    0.5100
     14 O14        -3.4121    5.5314   50.4663 O.2     1  ZINC000076573199   -0.5000
     15 N15        -1.9692    3.8514   50.6140 N.am    1  ZINC000076573199   -0.6400
     16 C16        -1.6177    3.9792   49.2678 C.ar    1  ZINC000076573199    0.1500
     17 C17        -0.9790    5.1299   48.8218 C.ar    1  ZINC000076573199   -0.1300
     18 C18        -0.6308    5.2565   47.4907 C.ar    1  ZINC000076573199   -0.0800
     19 C19        -0.9161    4.2404   46.5992 C.ar    1  ZINC000076573199   -0.1200
     20 C20        -0.5341    4.3828   45.1484 C.3     1  ZINC000076573199   -0.1100
     21 C21        -1.5547    3.0872   47.0388 C.ar    1  ZINC000076573199    0.1600
     22 N22        -1.8432    2.0588   46.1349 N.am    1  ZINC000076573199   -0.6700
     23 C23        -1.0226    0.9937   46.0416 C.2     1  ZINC000076573199    0.5100
     24 C24        -1.3332   -0.1139   45.0682 C.3     1  ZINC000076573199   -0.1700
     25 O25        -0.0339    0.9268   46.7409 O.2     1  ZINC000076573199   -0.5200
     26 C26        -1.9010    2.9543   48.3753 C.ar    1  ZINC000076573199   -0.1400
     27 H27        -7.0170    4.5017   57.5661 H       1  ZINC000076573199    0.0600
     28 H28        -5.7859    4.5059   58.8517 H       1  ZINC000076573199    0.0500
     29 H29        -5.5561    5.5042   57.3962 H       1  ZINC000076573199    0.0500
     30 H30        -4.1618    3.4560   57.2999 H       1  ZINC000076573199    0.0600
     31 H31        -5.6227    2.4535   57.4699 H       1  ZINC000076573199    0.0600
     32 H32        -6.9143    1.8881   55.4998 H       1  ZINC000076573199    0.0600
     33 H33        -7.5988    3.4989   55.8243 H       1  ZINC000076573199    0.0600
     34 H34        -7.0509    3.0786   54.1837 H       1  ZINC000076573199    0.0500
     35 H35        -4.2313    1.7101   55.4280 H       1  ZINC000076573199    0.0800
     36 H36        -4.7687    2.3688   53.8642 H       1  ZINC000076573199    0.0700
     37 H37        -1.0632    3.2395   55.4122 H       1  ZINC000076573199    0.0600
     38 H38        -2.2659    2.5773   56.5450 H       1  ZINC000076573199    0.0700
     39 H39        -1.8572    1.6859   55.0594 H       1  ZINC000076573199    0.0600
     40 H40        -2.1141    2.9207   52.9334 H       1  ZINC000076573199    0.4100
     41 H41        -1.5512    3.1687   51.1619 H       1  ZINC000076573199    0.4200
     42 H42        -0.7549    5.9261   49.5162 H       1  ZINC000076573199    0.1400
     43 H43        -0.1348    6.1519   47.1464 H       1  ZINC000076573199    0.1300
     44 H44         0.4701    3.9872   44.9967 H       1  ZINC000076573199    0.0700
     45 H45        -1.2402    3.8281   44.5307 H       1  ZINC000076573199    0.0600
     46 H46        -0.5558    5.4361   44.8687 H       1  ZINC000076573199    0.0700
     47 H47        -2.6339    2.1123   45.5755 H       1  ZINC000076573199    0.4100
     48 H48        -1.3584    0.2887   44.0555 H       1  ZINC000076573199    0.0900
     49 H49        -0.5632   -0.8826   45.1345 H       1  ZINC000076573199    0.1000
     50 H50        -2.3028   -0.5491   45.3103 H       1  ZINC000076573199    0.0900
     51 H51        -2.3974    2.0589   48.7193 H       1  ZINC000076573199    0.1400
@<TRIPOS>BOND
     1     1     2    1
     2     1    27    1
     3     1    28    1
     4     1    29    1
     5     2     3    1
     6     2    30    1
     7     2    31    1
     8     3     4    1
     9     3     5    1
    10     3     6    1
    11     5    32    1
    12     5    33    1
    13     5    34    1
    14     6     7    1
    15     6    35    1
    16     6    36    1
    17     7     8    1
    18     7     9    1
    19     7    10    1
    20     9    37    1
    21     9    38    1
    22     9    39    1
    23    10    11   am
    24    10    40    1
    25    11    12    2
    26    11    13    1
    27    13    14    2
    28    13    15   am
    29    15    16    1
    30    15    41    1
    31    16    26   ar
    32    16    17   ar
    33    17    18   ar
    34    17    42    1
    35    18    19   ar
    36    18    43    1
    37    19    20    1
    38    19    21   ar
    39    20    44    1
    40    20    45    1
    41    20    46    1
    42    21    22    1
    43    21    26   ar
    44    22    23   am
    45    22    47    1
    46    23    24    1
    47    23    25    2
    48    24    48    1
    49    24    49    1
    50    24    50    1
    51    26    51    1
@<TRIPOS>SUBSTRUCTURE
     1 ZINC000076573199        1 TEMP              0 ****  ****    0 ROOT


##########                                Name:    ZINC000655235556
##########                DOCK_Rotatable_Bonds:                   6
##########                         Heavy_Atoms:                  23
##########                    Molecular_Weight:             336.778
##########                DOCK_Rotatable_Bonds:                   6
##########                       Formal_Charge:         -0.00999996
##########                     HBond_Acceptors:                   8
##########                        HBond_Donors:                   2
##########                         Heavy_Atoms:                  23
##########                          Grid_Score:          -29.676645
##########                     Grid_vdw_energy:          -29.435434
##########                      Grid_es_energy:           -0.241211
##########           Internal_energy_repulsive:            4.879649

@<TRIPOS>MOLECULE
ZINC000655235556
 40 42 1 0 0
SMALL
USER_CHARGES


@<TRIPOS>ATOM
      1 C1         -0.3316    4.9065   46.3220 C.3     1  ZINC000655235556    0.0200
      2 O2         -1.4657    4.3908   47.0220 O.3     1  ZINC000655235556   -0.2700
      3 C3         -1.5314    3.0453   47.1816 C.ar    1  ZINC000655235556    0.2000
      4 C4         -1.4639    2.2093   46.0782 C.ar    1  ZINC000655235556   -0.2100
      5 C5         -1.5304    0.8383   46.2427 C.ar    1  ZINC000655235556    0.0300
      6 Cl6        -1.4453   -0.2027   44.8560 Cl      1  ZINC000655235556   -0.0500
      7 C7         -1.6644    0.2900   47.5092 C.ar    1  ZINC000655235556   -0.1600
      8 C8         -1.7330    1.1072   48.6163 C.ar    1  ZINC000655235556   -0.0300
      9 C9         -1.6619    2.4941   48.4643 C.ar    1  ZINC000655235556   -0.1700
     10 C10        -1.7343    3.3740   49.6455 C.2     1  ZINC000655235556    0.5700
     11 O11        -0.7895    3.4478   50.4076 O.2     1  ZINC000655235556   -0.5100
     12 N12        -2.8476    4.0964   49.8805 N.am    1  ZINC000655235556   -0.7300
     13 C13        -2.9188    4.9719   51.0531 C.3     1  ZINC000655235556    0.2100
     14 C14        -3.2906    4.1581   52.2657 C.2     1  ZINC000655235556    0.2600
     15 N15        -2.4648    3.7273   53.1846 N.2     1  ZINC000655235556   -0.5100
     16 C16        -3.1355    3.0417   54.1094 C.2     1  ZINC000655235556    0.2200
     17 C17        -2.5308    2.3900   55.3264 C.3     1  ZINC000655235556    0.1700
     18 H18        -3.1308    1.5292   55.6212 H       1  ZINC000655235556    0.1100
     19 C19        -2.4665    3.4060   56.4870 C.3     1  ZINC000655235556   -0.1400
     20 C20        -1.0963    3.0752   57.1390 C.3     1  ZINC000655235556   -0.1500
     21 C21        -0.2680    2.6705   55.8936 C.3     1  ZINC000655235556    0.0500
     22 O22        -1.1910    1.9731   55.0390 O.3     1  ZINC000655235556   -0.3700
     23 N23        -4.4030    3.0266   53.7904 N.2     1  ZINC000655235556   -0.2800
     24 N24        -4.5293    3.7530   52.5951 N.pl3   1  ZINC000655235556   -0.4700
     25 H25         0.5795    4.6297   46.8524 H       1  ZINC000655235556    0.0600
     26 H26        -0.3062    4.4904   45.3148 H       1  ZINC000655235556    0.0600
     27 H27        -0.4030    5.9927   46.2647 H       1  ZINC000655235556    0.1100
     28 H28        -1.3595    2.6295   45.0887 H       1  ZINC000655235556    0.1500
     29 H29        -1.7156   -0.7821   47.6282 H       1  ZINC000655235556    0.1400
     30 H30        -1.8376    0.6758   49.6009 H       1  ZINC000655235556    0.1400
     31 H31        -3.6017    4.0367   49.2733 H       1  ZINC000655235556    0.4000
     32 H32        -1.9490    5.4424   51.2147 H       1  ZINC000655235556    0.1000
     33 H33        -3.6727    5.7413   50.8867 H       1  ZINC000655235556    0.1100
     34 H34        -2.4796    4.4282   56.1089 H       1  ZINC000655235556    0.0800
     35 H35        -3.2814    3.2416   57.1920 H       1  ZINC000655235556    0.0900
     36 H36        -0.6708    3.9529   57.6256 H       1  ZINC000655235556    0.0900
     37 H37        -1.1847    2.2445   57.8390 H       1  ZINC000655235556    0.0800
     38 H38         0.1175    3.5576   55.3910 H       1  ZINC000655235556    0.0600
     39 H39         0.5512    2.0119   56.1818 H       1  ZINC000655235556    0.0900
     40 H40        -5.3470    3.9231   52.1019 H       1  ZINC000655235556    0.4400
@<TRIPOS>BOND
     1     1     2    1
     2     1    25    1
     3     1    26    1
     4     1    27    1
     5     2     3    1
     6     3     9   ar
     7     3     4   ar
     8     4     5   ar
     9     4    28    1
    10     5     6    1
    11     5     7   ar
    12     7     8   ar
    13     7    29    1
    14     8     9   ar
    15     8    30    1
    16     9    10    1
    17    10    11    2
    18    10    12   am
    19    12    13    1
    20    12    31    1
    21    13    14    1
    22    13    32    1
    23    13    33    1
    24    14    24    1
    25    14    15    2
    26    15    16    1
    27    16    17    1
    28    16    23    2
    29    17    18    1
    30    17    22    1
    31    17    19    1
    32    19    20    1
    33    19    34    1
    34    19    35    1
    35    20    21    1
    36    20    36    1
    37    20    37    1
    38    21    22    1
    39    21    38    1
    40    21    39    1
    41    23    24    1
    42    24    40    1
@<TRIPOS>SUBSTRUCTURE
     1 ZINC000655235556        1 TEMP              0 ****  ****    0 ROOT


##########                                Name:    ZINC000626935317
##########                DOCK_Rotatable_Bonds:                   6
##########                         Heavy_Atoms:                  25
##########                    Molecular_Weight:             366.441
##########                DOCK_Rotatable_Bonds:                   6
##########                       Formal_Charge:          -0.0200006
##########                     HBond_Acceptors:                   9
##########                        HBond_Donors:                   2
##########                         Heavy_Atoms:                  25
##########                          Grid_Score:          -29.671251
##########                     Grid_vdw_energy:          -28.084486
##########                      Grid_es_energy:           -1.586765
##########           Internal_energy_repulsive:            9.832512

@<TRIPOS>MOLECULE
ZINC000626935317
 47 49 1 0 0
SMALL
USER_CHARGES


@<TRIPOS>ATOM
      1 C1        -15.5585   -3.9465   58.9276 C.3     1  ZINC000626935317    0.0900
      2 N2        -14.1580   -3.5213   58.9940 N.am    1  ZINC000626935317   -0.6200
      3 C3        -13.2062   -3.9073   58.1270 C.2     1  ZINC000626935317    0.5200
      4 O4        -13.3829   -4.6568   57.1900 O.2     1  ZINC000626935317   -0.5200
      5 C5        -11.8827   -3.2707   58.4898 C.3     1  ZINC000626935317   -0.1500
      6 C6        -12.2657   -2.1210   59.4503 C.3     1  ZINC000626935317   -0.1200
      7 H7        -12.3925   -1.1847   58.9070 H       1  ZINC000626935317    0.1200
      8 C8        -11.2427   -1.9709   60.5467 C.2     1  ZINC000626935317    0.5300
      9 O9        -11.0417   -2.8850   61.3180 O.2     1  ZINC000626935317   -0.5200
     10 N10       -10.5511   -0.8207   60.6701 N.am    1  ZINC000626935317   -0.7100
     11 C11        -9.5579   -0.6740   61.7370 C.3     1  ZINC000626935317    0.1200
     12 C12        -8.1909   -1.2899   61.3951 C.3     1  ZINC000626935317   -0.1600
     13 C13        -7.8173    0.0723   60.7870 C.3     1  ZINC000626935317    0.1200
     14 N14        -8.1709    0.1999   59.3711 N.am    1  ZINC000626935317   -1.1100
     15 S15        -7.5990    1.4777   58.4867 S.o2    1  ZINC000626935317    2.6100
     16 C16        -8.2826    1.2209   56.8262 C.3     1  ZINC000626935317   -0.6700
     17 O17        -8.1875    2.6179   59.0973 O.2     1  ZINC000626935317   -0.9500
     18 O18        -6.1897    1.2960   58.4794 O.2     1  ZINC000626935317   -0.9500
     19 C19        -8.8534    0.6930   61.7391 C.3     1  ZINC000626935317   -0.1600
     20 C20       -13.6155   -2.6141   60.0122 C.3     1  ZINC000626935317    0.2000
     21 H21       -13.4607   -3.1545   60.9461 H       1  ZINC000626935317    0.1100
     22 C22       -14.5454   -1.4489   60.2328 C.ar    1  ZINC000626935317   -0.1600
     23 C23       -15.0593   -0.7468   59.1535 C.ar    1  ZINC000626935317   -0.0500
     24 C24       -15.9115    0.3180   59.4043 C.ar    1  ZINC000626935317   -0.1700
     25 C25       -16.2182    0.6416   60.7121 C.ar    1  ZINC000626935317    0.1000
     26 N26       -15.7106   -0.0488   61.7147 N.ar    1  ZINC000626935317   -0.4800
     27 C27       -14.9013   -1.0702   61.5137 C.ar    1  ZINC000626935317    0.1200
     28 H28       -16.1215   -3.2474   58.3092 H       1  ZINC000626935317    0.0600
     29 H29       -15.6150   -4.9440   58.4918 H       1  ZINC000626935317    0.0800
     30 H30       -15.9808   -3.9644   59.9323 H       1  ZINC000626935317    0.0700
     31 H31       -11.2386   -3.9908   58.9944 H       1  ZINC000626935317    0.1100
     32 H32       -11.3922   -2.8767   57.5998 H       1  ZINC000626935317    0.1200
     33 H33       -10.7109   -0.0899   60.0525 H       1  ZINC000626935317    0.4000
     34 H34        -9.9394   -0.9700   62.7142 H       1  ZINC000626935317    0.1100
     35 H35        -7.5993   -1.5538   62.2716 H       1  ZINC000626935317    0.1100
     36 H36        -8.2458   -2.0949   60.6621 H       1  ZINC000626935317    0.0800
     37 H37        -6.7921    0.3775   60.9964 H       1  ZINC000626935317    0.1100
     38 H38        -8.7402   -0.4642   58.9516 H       1  ZINC000626935317    0.4100
     39 H39        -9.3713    1.2167   56.8780 H       1  ZINC000626935317    0.1300
     40 H40        -7.9532    2.0258   56.1691 H       1  ZINC000626935317    0.1300
     41 H41        -7.9339    0.2657   56.4334 H       1  ZINC000626935317    0.1300
     42 H42        -9.4430    1.4888   61.2840 H       1  ZINC000626935317    0.0900
     43 H43        -8.4429    0.9711   62.7097 H       1  ZINC000626935317    0.1100
     44 H44       -14.8016   -1.0223   58.1416 H       1  ZINC000626935317    0.1400
     45 H45       -16.3302    0.8874   58.5875 H       1  ZINC000626935317    0.1400
     46 H46       -16.8809    1.4697   60.9158 H       1  ZINC000626935317    0.1600
     47 H47       -14.5051   -1.6119   62.3598 H       1  ZINC000626935317    0.1500
@<TRIPOS>BOND
     1     1     2    1
     2     1    28    1
     3     1    29    1
     4     1    30    1
     5     2    20    1
     6     2     3   am
     7     3     4    2
     8     3     5    1
     9     5     6    1
    10     5    31    1
    11     5    32    1
    12     6     7    1
    13     6     8    1
    14     6    20    1
    15     8     9    2
    16     8    10   am
    17    10    11    1
    18    10    33    1
    19    11    19    1
    20    11    12    1
    21    11    34    1
    22    12    13    1
    23    12    35    1
    24    12    36    1
    25    13    14    1
    26    13    19    1
    27    13    37    1
    28    14    15   am
    29    14    38    1
    30    15    16    1
    31    15    17    2
    32    15    18    2
    33    16    39    1
    34    16    40    1
    35    16    41    1
    36    19    42    1
    37    19    43    1
    38    20    21    1
    39    20    22    1
    40    22    27   ar
    41    22    23   ar
    42    23    24   ar
    43    23    44    1
    44    24    25   ar
    45    24    45    1
    46    25    26   ar
    47    25    46    1
    48    26    27   ar
    49    27    47    1
@<TRIPOS>SUBSTRUCTURE
     1 ZINC000626935317        1 TEMP              0 ****  ****    0 ROOT


##########                                Name:    ZINC000052999724
##########                DOCK_Rotatable_Bonds:                   6
##########                         Heavy_Atoms:                  25
##########                    Molecular_Weight:             398.571
##########                DOCK_Rotatable_Bonds:                   6
##########                       Formal_Charge:           0.0399994
##########                     HBond_Acceptors:                   8
##########                        HBond_Donors:                   1
##########                         Heavy_Atoms:                  25
##########                          Grid_Score:          -29.667139
##########                     Grid_vdw_energy:          -28.500870
##########                      Grid_es_energy:           -1.166269
##########           Internal_energy_repulsive:           11.605277

@<TRIPOS>MOLECULE
ZINC000052999724
 47 49 1 0 0
SMALL
USER_CHARGES


@<TRIPOS>ATOM
      1 C1         -5.9204    3.1502   53.6287 C.3     1  ZINC000052999724   -0.1400
      2 C2         -4.9265    4.3074   53.7467 C.3     1  ZINC000052999724   -0.0400
      3 C3         -5.4106    5.2883   54.8164 C.3     1  ZINC000052999724   -0.1400
      4 C4         -3.5731    3.7696   54.1340 C.2     1  ZINC000052999724   -0.0400
      5 C5         -2.4101    4.1553   53.5290 C.2     1  ZINC000052999724   -0.2600
      6 C6         -2.3014    5.1277   52.4375 C.2     1  ZINC000052999724    0.6000
      7 O7         -2.0384    6.2905   52.6825 O.2     1  ZINC000052999724   -0.5200
      8 N8         -2.4926    4.7342   51.1627 N.am    1  ZINC000052999724   -0.6000
      9 C9         -2.3809    5.6958   50.0576 C.3     1  ZINC000052999724    0.1100
     10 C10        -1.3860    5.1507   49.0282 C.3     1  ZINC000052999724   -0.1400
     11 C11        -1.8199    3.7473   48.5988 C.3     1  ZINC000052999724    0.1500
     12 N12        -0.8890    3.2361   47.5898 N.am    1  ZINC000052999724   -1.1100
     13 S13        -1.4626    2.3882   46.2880 S.o2    1  ZINC000052999724    2.7200
     14 O14        -1.9969    1.1762   46.8025 O.2     1  ZINC000052999724   -0.9500
     15 O15        -2.2231    3.3064   45.5146 O.2     1  ZINC000052999724   -0.9400
     16 C16        -0.0718    1.9404   45.3032 C.2     1  ZINC000052999724   -0.8000
     17 C17         1.0814    2.6089   45.2521 C.2     1  ZINC000052999724    0.0100
     18 C18         2.0328    2.0667   44.4054 C.2     1  ZINC000052999724   -0.1600
     19 C19         1.6522    0.9579   43.7690 C.2     1  ZINC000052999724   -0.1700
     20 S20         0.0110    0.5395   44.2431 S.3     1  ZINC000052999724    0.2100
     21 C21        -1.8168    2.8165   49.8136 C.3     1  ZINC000052999724   -0.1500
     22 C22        -2.8107    3.3340   50.8514 C.3     1  ZINC000052999724    0.1100
     23 S23        -1.0650    3.2988   54.2699 S.3     1  ZINC000052999724    0.2100
     24 C24        -2.1139    2.4793   55.3371 C.2     1  ZINC000052999724   -0.2400
     25 C25        -3.3848    2.8463   55.1350 C.2     1  ZINC000052999724   -0.1300
     26 H26        -5.5756    2.4514   52.8666 H       1  ZINC000052999724    0.0600
     27 H27        -5.9945    2.6357   54.5867 H       1  ZINC000052999724    0.0600
     28 H28        -6.8993    3.5393   53.3485 H       1  ZINC000052999724    0.0600
     29 H29        -4.8525    4.8220   52.7887 H       1  ZINC000052999724    0.0800
     30 H30        -5.4846    4.7738   55.7745 H       1  ZINC000052999724    0.0600
     31 H31        -4.7025    6.1128   54.9006 H       1  ZINC000052999724    0.0600
     32 H32        -6.3895    5.6774   54.5364 H       1  ZINC000052999724    0.0600
     33 H33        -3.3559    5.8285   49.5888 H       1  ZINC000052999724    0.0800
     34 H34        -2.0239    6.6521   50.4400 H       1  ZINC000052999724    0.0900
     35 H35        -1.3659    5.8073   48.1585 H       1  ZINC000052999724    0.0900
     36 H36        -0.3918    5.1041   49.4725 H       1  ZINC000052999724    0.0800
     37 H37        -2.8243    3.7908   48.1775 H       1  ZINC000052999724    0.0900
     38 H38         0.0633    3.3942   47.6841 H       1  ZINC000052999724    0.4200
     39 H39         1.2591    3.5054   45.8275 H       1  ZINC000052999724    0.1600
     40 H40         3.0091    2.5081   44.2701 H       1  ZINC000052999724    0.1500
     41 H41         2.2603    0.4003   43.0719 H       1  ZINC000052999724    0.1800
     42 H42        -2.1034    1.8118   49.5028 H       1  ZINC000052999724    0.1000
     43 H43        -0.8185    2.7918   50.2505 H       1  ZINC000052999724    0.0800
     44 H44        -2.7399    2.7316   51.7571 H       1  ZINC000052999724    0.1000
     45 H45        -3.8221    3.2757   50.4494 H       1  ZINC000052999724    0.0800
     46 H46        -1.7944    1.7629   56.0795 H       1  ZINC000052999724    0.1700
     47 H47        -4.2036    2.4406   55.7106 H       1  ZINC000052999724    0.1400
@<TRIPOS>BOND
     1     1     2    1
     2     1    26    1
     3     1    27    1
     4     1    28    1
     5     2     3    1
     6     2     4    1
     7     2    29    1
     8     3    30    1
     9     3    31    1
    10     3    32    1
    11     4    25    1
    12     4     5    2
    13     5     6    1
    14     5    23    1
    15     6     7    2
    16     6     8   am
    17     8    22    1
    18     8     9    1
    19     9    10    1
    20     9    33    1
    21     9    34    1
    22    10    11    1
    23    10    35    1
    24    10    36    1
    25    11    12    1
    26    11    21    1
    27    11    37    1
    28    12    13   am
    29    12    38    1
    30    13    14    2
    31    13    15    2
    32    13    16    1
    33    16    20    1
    34    16    17    2
    35    17    18    1
    36    17    39    1
    37    18    19    2
    38    18    40    1
    39    19    20    1
    40    19    41    1
    41    21    22    1
    42    21    42    1
    43    21    43    1
    44    22    44    1
    45    22    45    1
    46    23    24    1
    47    24    25    2
    48    24    46    1
    49    25    47    1
@<TRIPOS>SUBSTRUCTURE
     1 ZINC000052999724        1 TEMP              0 ****  ****    0 ROOT


##########                                Name:    ZINC000417533280
##########                DOCK_Rotatable_Bonds:                   9
##########                         Heavy_Atoms:                  26
##########                    Molecular_Weight:             367.439
##########                DOCK_Rotatable_Bonds:                   9
##########                       Formal_Charge:         -0.00999999
##########                     HBond_Acceptors:                   7
##########                        HBond_Donors:                   2
##########                         Heavy_Atoms:                  26
##########                          Grid_Score:          -29.630548
##########                     Grid_vdw_energy:          -27.845451
##########                      Grid_es_energy:           -1.785097
##########           Internal_energy_repulsive:           14.361008

@<TRIPOS>MOLECULE
ZINC000417533280
 53 54 1 0 0
SMALL
USER_CHARGES


@<TRIPOS>ATOM
      1 C1        -17.8432    0.0738   59.2598 C.3     1  ZINC000417533280   -0.1600
      2 C2        -17.8383   -1.1193   58.3021 C.3     1  ZINC000417533280   -0.1200
      3 C3        -16.4485   -1.7589   58.2911 C.3     1  ZINC000417533280   -0.1200
      4 C4        -16.2365   -2.5405   59.5893 C.3     1  ZINC000417533280   -0.1300
      5 C5        -15.0142   -3.4491   59.4437 C.3     1  ZINC000417533280    0.1200
      6 N6        -13.7998   -2.6308   59.4010 N.am    1  ZINC000417533280   -0.7300
      7 C7        -13.2278   -2.2135   60.5477 C.2     1  ZINC000417533280    0.5200
      8 O8        -13.7175   -2.5166   61.6150 O.2     1  ZINC000417533280   -0.5400
      9 C9        -11.9795   -1.3701   60.5037 C.3     1  ZINC000417533280   -0.1100
     10 C10       -12.2113   -0.0752   61.2857 C.3     1  ZINC000417533280   -0.1300
     11 C11       -10.9526    0.7947   61.2098 C.3     1  ZINC000417533280    0.1300
     12 N12        -9.8039    0.0059   61.6755 N.am    1  ZINC000417533280   -0.6200
     13 C13        -9.0042    0.4703   62.6561 C.2     1  ZINC000417533280    0.7100
     14 O14        -9.2305    1.5516   63.1640 O.2     1  ZINC000417533280   -0.5600
     15 N15        -7.9539   -0.2639   63.0735 N.am    1  ZINC000417533280   -0.6800
     16 C16        -7.1229    0.2187   64.0924 C.ar    1  ZINC000417533280    0.1900
     17 C17        -6.0343    1.0213   63.7795 C.ar    1  ZINC000417533280   -0.1100
     18 C18        -5.2153    1.4975   64.7854 C.ar    1  ZINC000417533280   -0.1100
     19 C19        -5.4788    1.1749   66.1050 C.ar    1  ZINC000417533280    0.0500
     20 F20        -4.6768    1.6420   67.0868 F       1  ZINC000417533280   -0.1300
     21 C21        -6.5657    0.3732   66.4209 C.ar    1  ZINC000417533280    0.0900
     22 F22        -6.8217    0.0593   67.7097 F       1  ZINC000417533280   -0.1200
     23 C23        -7.3904   -0.1004   65.4169 C.ar    1  ZINC000417533280   -0.1300
     24 C24        -8.5718   -0.9712   65.7592 C.3     1  ZINC000417533280   -0.1200
     25 C25        -9.5437   -1.2990   61.0524 C.3     1  ZINC000417533280    0.1100
     26 C26       -10.8182   -2.1454   61.1301 C.3     1  ZINC000417533280   -0.1200
     27 H27       -17.5915   -0.2658   60.2646 H       1  ZINC000417533280    0.0500
     28 H28       -17.1080    0.8078   58.9297 H       1  ZINC000417533280    0.0500
     29 H29       -18.8332    0.5295   59.2676 H       1  ZINC000417533280    0.0500
     30 H30       -18.5735   -1.8532   58.6322 H       1  ZINC000417533280    0.0600
     31 H31       -18.0900   -0.7797   57.2973 H       1  ZINC000417533280    0.0600
     32 H32       -16.3673   -2.4368   57.4415 H       1  ZINC000417533280    0.0700
     33 H33       -15.6907   -0.9799   58.2083 H       1  ZINC000417533280    0.0700
     34 H34       -16.0750   -1.8430   60.4111 H       1  ZINC000417533280    0.0700
     35 H35       -17.1180   -3.1476   59.7959 H       1  ZINC000417533280    0.0700
     36 H36       -14.9640   -4.1297   60.2937 H       1  ZINC000417533280    0.0700
     37 H37       -15.0971   -4.0247   58.5218 H       1  ZINC000417533280    0.0700
     38 H38       -13.4074   -2.3894   58.5474 H       1  ZINC000417533280    0.4000
     39 H39       -11.7395   -1.1306   59.4679 H       1  ZINC000417533280    0.1000
     40 H40       -13.0535    0.4650   60.8534 H       1  ZINC000417533280    0.0800
     41 H41       -12.4271   -0.3129   62.3274 H       1  ZINC000417533280    0.0800
     42 H42       -10.7868    1.1083   60.1792 H       1  ZINC000417533280    0.0700
     43 H43       -11.0756    1.6716   61.8454 H       1  ZINC000417533280    0.1000
     44 H44        -7.7735   -1.1265   62.6683 H       1  ZINC000417533280    0.4100
     45 H45        -5.8275    1.2734   62.7499 H       1  ZINC000417533280    0.1700
     46 H46        -4.3684    2.1216   64.5413 H       1  ZINC000417533280    0.1500
     47 H47        -9.4469   -0.3448   65.9321 H       1  ZINC000417533280    0.0800
     48 H48        -8.7712   -1.6541   64.9334 H       1  ZINC000417533280    0.0700
     49 H49        -8.3517   -1.5445   66.6598 H       1  ZINC000417533280    0.0800
     50 H50        -9.2629   -1.1561   60.0089 H       1  ZINC000417533280    0.0800
     51 H51        -8.7369   -1.8035   61.5842 H       1  ZINC000417533280    0.0800
     52 H52       -11.0470   -2.3636   62.1732 H       1  ZINC000417533280    0.0800
     53 H53       -10.6688   -3.0785   60.5870 H       1  ZINC000417533280    0.0900
@<TRIPOS>BOND
     1     1     2    1
     2     1    27    1
     3     1    28    1
     4     1    29    1
     5     2     3    1
     6     2    30    1
     7     2    31    1
     8     3     4    1
     9     3    32    1
    10     3    33    1
    11     4     5    1
    12     4    34    1
    13     4    35    1
    14     5     6    1
    15     5    36    1
    16     5    37    1
    17     6     7   am
    18     6    38    1
    19     7     8    2
    20     7     9    1
    21     9    26    1
    22     9    10    1
    23     9    39    1
    24    10    11    1
    25    10    40    1
    26    10    41    1
    27    11    12    1
    28    11    42    1
    29    11    43    1
    30    12    13   am
    31    12    25    1
    32    13    14    2
    33    13    15   am
    34    15    16    1
    35    15    44    1
    36    16    23   ar
    37    16    17   ar
    38    17    18   ar
    39    17    45    1
    40    18    19   ar
    41    18    46    1
    42    19    20    1
    43    19    21   ar
    44    21    22    1
    45    21    23   ar
    46    23    24    1
    47    24    47    1
    48    24    48    1
    49    24    49    1
    50    25    26    1
    51    25    50    1
    52    25    51    1
    53    26    52    1
    54    26    53    1
@<TRIPOS>SUBSTRUCTURE
     1 ZINC000417533280        1 TEMP              0 ****  ****    0 ROOT


##########                                Name:    ZINC001053792610
##########                DOCK_Rotatable_Bonds:                   5
##########                         Heavy_Atoms:                  25
##########                    Molecular_Weight:             347.374
##########                DOCK_Rotatable_Bonds:                   5
##########                       Formal_Charge:          -0.0400001
##########                     HBond_Acceptors:                   9
##########                        HBond_Donors:                   2
##########                         Heavy_Atoms:                  25
##########                          Grid_Score:          -29.605991
##########                     Grid_vdw_energy:          -29.665329
##########                      Grid_es_energy:            0.059338
##########           Internal_energy_repulsive:            5.460371

@<TRIPOS>MOLECULE
ZINC001053792610
 46 49 1 0 0
SMALL
USER_CHARGES


@<TRIPOS>ATOM
      1 C1         -3.5491    3.1439   55.7152 C.3     1  ZINC001053792610   -0.1000
      2 C2         -3.0253    3.4128   54.3279 C.ar    1  ZINC001053792610    0.0800
      3 C3         -1.6652    3.3611   54.0800 C.ar    1  ZINC001053792610    0.0600
      4 N4         -1.2058    3.5970   52.8635 N.ar    1  ZINC001053792610   -0.4200
      5 C5         -2.0455    3.8821   51.8841 C.ar    1  ZINC001053792610    0.0800
      6 C6         -1.5217    4.1506   50.4968 C.3     1  ZINC001053792610    0.0700
      7 N7         -1.1291    2.8826   49.8676 N.3     1  ZINC001053792610   -0.4500
      8 C8         -0.6866    3.0974   48.4757 C.3     1  ZINC001053792610   -0.0100
      9 C9         -1.4663    1.8397   48.0976 C.3     1  ZINC001053792610    0.0800
     10 C10        -2.3060    2.1725   49.3292 C.3     1  ZINC001053792610   -0.0100
     11 C11        -2.2134    1.9113   46.7566 C.3     1  ZINC001053792610   -0.1500
     12 C12        -1.4102    0.9045   45.8857 C.3     1  ZINC001053792610    0.1100
     13 H13        -2.0429    0.4562   45.1197 H       1  ZINC001053792610    0.1200
     14 N14        -0.2358    1.5441   45.2875 N.am    1  ZINC001053792610   -0.7100
     15 C15         0.2546    1.0920   44.1164 C.2     1  ZINC001053792610    0.5000
     16 O16        -0.2772    0.1564   43.5571 O.2     1  ZINC001053792610   -0.5100
     17 C17         1.4637    1.7488   43.5019 C.3     1  ZINC001053792610    0.0800
     18 H18         1.1651    2.5928   42.8801 H       1  ZINC001053792610    0.1300
     19 C19         2.4472    2.2048   44.5971 C.3     1  ZINC001053792610    0.0500
     20 O20         3.6606    1.4476   44.3189 O.3     1  ZINC001053792610   -0.3200
     21 C21         3.4645    0.6677   43.2499 C.2     1  ZINC001053792610    0.6500
     22 O22         4.3192   -0.0706   42.8020 O.2     1  ZINC001053792610   -0.5100
     23 N23         2.2368    0.7755   42.7155 N.am    1  ZINC001053792610   -0.7100
     24 C24        -0.9948   -0.1433   46.9500 C.3     1  ZINC001053792610    0.0400
     25 O25        -0.7409    0.6152   48.1463 O.3     1  ZINC001053792610   -0.3300
     26 C26        -3.4060    3.9339   52.1320 C.ar    1  ZINC001053792610    0.0600
     27 N27        -3.8656    3.6927   53.3471 N.ar    1  ZINC001053792610   -0.4400
     28 H28        -3.7496    2.0784   55.8276 H       1  ZINC001053792610    0.0800
     29 H29        -2.8063    3.4533   56.4504 H       1  ZINC001053792610    0.0800
     30 H30        -4.4703    3.7053   55.8709 H       1  ZINC001053792610    0.0800
     31 H31        -0.9789    3.1283   54.8807 H       1  ZINC001053792610    0.1700
     32 H32        -2.3002    4.6265   49.9003 H       1  ZINC001053792610    0.1000
     33 H33        -0.6558    4.8099   50.5565 H       1  ZINC001053792610    0.0600
     34 H34        -1.0859    4.0075   48.0281 H       1  ZINC001053792610    0.0800
     35 H35         0.3906    2.9979   48.3418 H       1  ZINC001053792610    0.0900
     36 H36        -2.5892    1.2960   49.9121 H       1  ZINC001053792610    0.1000
     37 H37        -3.1497    2.8287   49.1158 H       1  ZINC001053792610    0.0800
     38 H38        -3.2484    1.5890   46.8699 H       1  ZINC001053792610    0.1000
     39 H39        -2.1637    2.9158   46.3364 H       1  ZINC001053792610    0.1000
     40 H40         0.1887    2.2932   45.7342 H       1  ZINC001053792610    0.4000
     41 H41         2.6380    3.2750   44.5178 H       1  ZINC001053792610    0.1200
     42 H42         2.0602    1.9569   45.5855 H       1  ZINC001053792610    0.1100
     43 H43         1.9142    0.2891   41.9407 H       1  ZINC001053792610    0.4400
     44 H44        -1.8043   -0.8538   47.1174 H       1  ZINC001053792610    0.0800
     45 H45        -0.0915   -0.6654   46.6344 H       1  ZINC001053792610    0.0900
     46 H46        -4.0923    4.1670   51.3314 H       1  ZINC001053792610    0.1600
@<TRIPOS>BOND
     1     1     2    1
     2     1    28    1
     3     1    29    1
     4     1    30    1
     5     2    27   ar
     6     2     3   ar
     7     3     4   ar
     8     3    31    1
     9     4     5   ar
    10     5     6    1
    11     5    26   ar
    12     6     7    1
    13     6    32    1
    14     6    33    1
    15     7    10    1
    16     7     8    1
    17     8     9    1
    18     8    34    1
    19     8    35    1
    20     9    25    1
    21     9    10    1
    22     9    11    1
    23    10    36    1
    24    10    37    1
    25    11    12    1
    26    11    38    1
    27    11    39    1
    28    12    13    1
    29    12    14    1
    30    12    24    1
    31    14    15   am
    32    14    40    1
    33    15    16    2
    34    15    17    1
    35    17    18    1
    36    17    23    1
    37    17    19    1
    38    19    20    1
    39    19    41    1
    40    19    42    1
    41    20    21    1
    42    21    22    2
    43    21    23   am
    44    23    43    1
    45    24    25    1
    46    24    44    1
    47    24    45    1
    48    26    27   ar
    49    26    46    1
@<TRIPOS>SUBSTRUCTURE
     1 ZINC001053792610        1 TEMP              0 ****  ****    0 ROOT


##########                                Name:    ZINC000012087388
##########                DOCK_Rotatable_Bonds:                   5
##########                         Heavy_Atoms:                  29
##########                    Molecular_Weight:              418.52
##########                DOCK_Rotatable_Bonds:                   5
##########                       Formal_Charge:          -0.0499999
##########                     HBond_Acceptors:                  10
##########                        HBond_Donors:                   1
##########                         Heavy_Atoms:                  29
##########                          Grid_Score:          -29.604931
##########                     Grid_vdw_energy:          -29.987076
##########                      Grid_es_energy:            0.382145
##########           Internal_energy_repulsive:           29.588478

@<TRIPOS>MOLECULE
ZINC000012087388
 55 58 1 0 0
SMALL
USER_CHARGES


@<TRIPOS>ATOM
      1 C1        -13.8490   -4.6339   57.8180 C.3     1  <0>        -0.6600
      2 S2        -14.6718   -3.2250   58.6106 S.o2    1  <0>         2.5100
      3 O3        -15.2033   -2.3428   57.6318 O.2     1  <0>        -0.9400
      4 O4        -15.4606   -3.6617   59.7089 O.2     1  <0>        -0.9300
      5 C5        -13.3610   -2.3113   59.3532 C.ar    1  <0>        -0.8400
      6 C6        -13.1991   -2.2969   60.7295 C.ar    1  <0>         0.3000
      7 N7        -12.2043   -1.6010   61.2550 N.ar    1  <0>        -0.5800
      8 C8        -11.3689   -0.9236   60.4815 C.ar    1  <0>         0.6000
      9 N9        -10.3391   -0.2063   61.0648 N.pl3   1  <0>        -0.5700
     10 C10        -9.1274   -0.8879   61.5403 C.3     1  <0>         0.1200
     11 C11        -7.9039   -0.2170   60.9081 C.3     1  <0>        -0.1400
     12 C12        -7.9389    1.2836   61.2064 C.3     1  <0>        -0.1200
     13 C13        -9.1984    1.8984   60.5918 C.3     1  <0>        -0.1400
     14 C14       -10.4340    1.2523   61.2149 C.3     1  <0>         0.1200
     15 N15       -11.4957   -0.9169   59.1625 N.ar    1  <0>        -0.5700
     16 C16       -12.4659   -1.5958   58.5731 C.ar    1  <0>         0.3200
     17 C17       -12.6030   -1.5828   57.0725 C.3     1  <0>        -0.0700
     18 C18       -13.2698   -0.2774   56.6326 C.3     1  <0>        -0.1300
     19 C19       -13.4389   -0.2829   55.1101 C.3     1  <0>         0.0900
     20 N20       -12.1303   -0.5308   54.4899 N.am    1  <0>        -0.6100
     21 C21       -11.6432    0.3092   53.5552 C.2     1  <0>         0.5900
     22 O22       -12.2883    1.2835   53.2176 O.2     1  <0>        -0.5100
     23 C23       -10.3307    0.0475   52.9430 C.2     1  <0>        -0.0400
     24 C24        -9.9948   -1.0130   52.1197 C.2     1  <0>        -0.1500
     25 C25        -8.6486   -0.8216   51.8004 C.2     1  <0>         0.0000
     26 N26        -8.2456    0.2702   52.3988 N.2     1  <0>        -0.2700
     27 N27        -9.2015    0.8059   53.0688 N.pl3   1  <0>        -0.3900
     28 C28       -11.3626   -1.7117   54.9081 C.3     1  <0>         0.1100
     29 C29       -11.2167   -1.6902   56.4329 C.3     1  <0>        -0.1200
     30 H30       -13.1368   -4.2694   57.0777 H       1  <0>         0.1400
     31 H31       -13.3219   -5.2183   58.5722 H       1  <0>         0.1300
     32 H32       -14.5938   -5.2609   57.3276 H       1  <0>         0.1400
     33 H33       -13.8771   -2.8469   61.3653 H       1  <0>         0.1900
     34 H34        -9.0667   -0.8103   62.6258 H       1  <0>         0.0700
     35 H35        -9.1604   -1.9375   61.2483 H       1  <0>         0.1000
     36 H36        -6.9951   -0.6499   61.3260 H       1  <0>         0.0800
     37 H37        -7.9197   -0.3740   59.8295 H       1  <0>         0.0700
     38 H38        -7.9481    1.4393   62.2853 H       1  <0>         0.0700
     39 H39        -7.0565    1.7596   60.7786 H       1  <0>         0.0700
     40 H40        -9.2109    2.9712   60.7846 H       1  <0>         0.0800
     41 H41        -9.2019    1.7215   59.5162 H       1  <0>         0.0700
     42 H42       -11.3297    1.6153   60.7108 H       1  <0>         0.1000
     43 H43       -10.4819    1.5023   62.2748 H       1  <0>         0.0700
     44 H44       -13.2151   -2.4275   56.7564 H       1  <0>         0.1000
     45 H45       -14.2474   -0.1905   57.1069 H       1  <0>         0.0800
     46 H46       -12.6460    0.5668   56.9264 H       1  <0>         0.0900
     47 H47       -14.1348   -1.0710   54.8226 H       1  <0>         0.0800
     48 H48       -13.8218    0.6833   54.7815 H       1  <0>         0.0900
     49 H49       -10.6371   -1.8176   51.7935 H       1  <0>         0.1700
     50 H50        -8.0470   -1.4613   51.1717 H       1  <0>         0.1900
     51 H51        -9.1307    1.6207   53.5901 H       1  <0>         0.4400
     52 H52       -11.8891   -2.6163   54.6041 H       1  <0>         0.0800
     53 H53       -10.3755   -1.6882   54.4463 H       1  <0>         0.1000
     54 H54       -10.6123   -0.8328   56.7285 H       1  <0>         0.0800
     55 H55       -10.7330   -2.6088   56.7651 H       1  <0>         0.0900
@<TRIPOS>BOND
     1     1     2    1
     2     1    30    1
     3     1    31    1
     4     1    32    1
     5     2     3    2
     6     2     4    2
     7     2     5    1
     8     5    16   ar
     9     5     6   ar
    10     6     7   ar
    11     6    33    1
    12     7     8   ar
    13     8     9    1
    14     8    15   ar
    15     9    14    1
    16     9    10    1
    17    10    11    1
    18    10    34    1
    19    10    35    1
    20    11    12    1
    21    11    36    1
    22    11    37    1
    23    12    13    1
    24    12    38    1
    25    12    39    1
    26    13    14    1
    27    13    40    1
    28    13    41    1
    29    14    42    1
    30    14    43    1
    31    15    16   ar
    32    16    17    1
    33    17    29    1
    34    17    18    1
    35    17    44    1
    36    18    19    1
    37    18    45    1
    38    18    46    1
    39    19    20    1
    40    19    47    1
    41    19    48    1
    42    20    21   am
    43    20    28    1
    44    21    22    2
    45    21    23    1
    46    23    27    1
    47    23    24    2
    48    24    25    1
    49    24    49    1
    50    25    26    2
    51    25    50    1
    52    26    27    1
    53    27    51    1
    54    28    29    1
    55    28    52    1
    56    28    53    1
    57    29    54    1
    58    29    55    1
@<TRIPOS>SUBSTRUCTURE
     1 <0>         1 TEMP              0 ****  ****    0 ROOT


##########                                Name:    ZINC000012979878
##########                DOCK_Rotatable_Bonds:                   7
##########                         Heavy_Atoms:                  26
##########                    Molecular_Weight:             388.874
##########                DOCK_Rotatable_Bonds:                   7
##########                       Formal_Charge:          -0.0100003
##########                     HBond_Acceptors:                   7
##########                        HBond_Donors:                   1
##########                         Heavy_Atoms:                  26
##########                          Grid_Score:          -29.591057
##########                     Grid_vdw_energy:          -29.043451
##########                      Grid_es_energy:           -0.547605
##########           Internal_energy_repulsive:            8.732022

@<TRIPOS>MOLECULE
ZINC000012979878
 43 45 1 0 0
SMALL
USER_CHARGES


@<TRIPOS>ATOM
      1 C1         -9.6879    0.1379   56.2998 C.3     1  <0>         0.0300
      2 O2         -9.4278    0.4553   57.6686 O.3     1  <0>        -0.3100
      3 C3         -8.3554    1.2498   57.9246 C.ar    1  <0>         0.1500
      4 C4         -7.9997    1.5349   59.2353 C.ar    1  <0>        -0.2200
      5 C5         -6.9096    2.3432   59.4974 C.ar    1  <0>        -0.0600
      6 C6         -6.1705    2.8693   58.4561 C.ar    1  <0>        -0.1800
      7 C7         -6.5219    2.5873   57.1416 C.ar    1  <0>         0.1800
      8 N8         -5.7736    3.1200   56.0873 N.am    1  <0>        -0.6700
      9 C9         -4.6043    2.5496   55.7352 C.2     1  <0>         0.6000
     10 O10        -4.1998    1.5710   56.3349 O.2     1  <0>        -0.4900
     11 C11        -3.8195    3.1082   54.6295 C.2     1  <0>        -0.3000
     12 C12        -2.6589    3.8018   54.7426 C.2     1  <0>         0.1600
     13 C13        -2.0065    4.0954   56.0690 C.3     1  <0>        -0.0900
     14 N14        -2.1542    4.1931   53.5995 N.2     1  <0>        -0.4500
     15 C15        -2.8038    3.8813   52.5244 C.2     1  <0>         0.0600
     16 C16        -2.3771    4.2450   51.1256 C.3     1  <0>         0.1300
     17 O17        -3.1649    3.5157   50.1824 O.3     1  <0>        -0.3000
     18 C18        -2.5160    2.9970   49.1066 C.ar    1  <0>         0.1300
     19 C19        -2.6665    1.6560   48.7849 C.ar    1  <0>        -0.2000
     20 C20        -2.0062    1.1306   47.6912 C.ar    1  <0>        -0.0700
     21 C21        -1.1946    1.9410   46.9170 C.ar    1  <0>        -0.0700
     22 Cl22       -0.3654    1.2784   45.5433 Cl      1  <0>        -0.0700
     23 C23        -1.0436    3.2788   47.2360 C.ar    1  <0>        -0.0700
     24 C24        -1.7068    3.8092   48.3256 C.ar    1  <0>        -0.1300
     25 S25        -4.2109    2.9925   52.9153 S.3     1  <0>         0.2000
     26 C26        -7.6127    1.7713   56.8768 C.ar    1  <0>        -0.1500
     27 H27        -9.8642    1.0569   55.7409 H       1  <0>         0.0600
     28 H28        -8.8292   -0.3847   55.8784 H       1  <0>         0.0600
     29 H29       -10.5689   -0.5009   56.2360 H       1  <0>         0.1000
     30 H30        -8.5758    1.1249   60.0517 H       1  <0>         0.1300
     31 H31        -6.6355    2.5640   60.5184 H       1  <0>         0.1300
     32 H32        -5.3191    3.5006   58.6636 H       1  <0>         0.1300
     33 H33        -6.0960    3.9000   55.6093 H       1  <0>         0.4100
     34 H34        -1.3183    3.2887   56.3219 H       1  <0>         0.0900
     35 H35        -1.4570    5.0345   56.0037 H       1  <0>         0.0800
     36 H36        -2.7721    4.1752   56.8407 H       1  <0>         0.1000
     37 H37        -2.5199    5.3141   50.9686 H       1  <0>         0.0900
     38 H38        -1.3247    3.9952   50.9903 H       1  <0>         0.1000
     39 H39        -3.2992    1.0230   49.3894 H       1  <0>         0.1400
     40 H40        -2.1231    0.0867   47.4404 H       1  <0>         0.1400
     41 H41        -0.4100    3.9098   46.6303 H       1  <0>         0.1400
     42 H42        -1.5886    4.8535   48.5744 H       1  <0>         0.1400
     43 H43        -7.8877    1.5502   55.8561 H       1  <0>         0.1400
@<TRIPOS>BOND
     1     1     2    1
     2     1    27    1
     3     1    28    1
     4     1    29    1
     5     2     3    1
     6     3    26   ar
     7     3     4   ar
     8     4     5   ar
     9     4    30    1
    10     5     6   ar
    11     5    31    1
    12     6     7   ar
    13     6    32    1
    14     7     8    1
    15     7    26   ar
    16     8     9   am
    17     8    33    1
    18     9    10    2
    19     9    11    1
    20    11    25    1
    21    11    12    2
    22    12    13    1
    23    12    14    1
    24    13    34    1
    25    13    35    1
    26    13    36    1
    27    14    15    2
    28    15    16    1
    29    15    25    1
    30    16    17    1
    31    16    37    1
    32    16    38    1
    33    17    18    1
    34    18    24   ar
    35    18    19   ar
    36    19    20   ar
    37    19    39    1
    38    20    21   ar
    39    20    40    1
    40    21    22    1
    41    21    23   ar
    42    23    24   ar
    43    23    41    1
    44    24    42    1
    45    26    43    1
@<TRIPOS>SUBSTRUCTURE
     1 <0>         1 TEMP              0 ****  ****    0 ROOT


##########                                Name:    ZINC000991934963
##########                DOCK_Rotatable_Bonds:                   8
##########                         Heavy_Atoms:                  27
##########                    Molecular_Weight:             370.495
##########                DOCK_Rotatable_Bonds:                   8
##########                       Formal_Charge:          -0.0499997
##########                     HBond_Acceptors:                   6
##########                        HBond_Donors:                   1
##########                         Heavy_Atoms:                  27
##########                          Grid_Score:          -29.591045
##########                     Grid_vdw_energy:          -29.043308
##########                      Grid_es_energy:           -0.547737
##########           Internal_energy_repulsive:           13.796682

@<TRIPOS>MOLECULE
ZINC000991934963
 57 61 1 0 0
SMALL
USER_CHARGES


@<TRIPOS>ATOM
      1 C1          3.7855    0.7489   48.3906 C.3     1  ZINC000991934963    0.0400
      2 O2          2.8906   -0.3640   48.3385 O.3     1  ZINC000991934963   -0.2900
      3 C3          1.5655   -0.0913   48.4062 C.ar    1  ZINC000991934963    0.5000
      4 N4          0.6976   -1.0881   48.3470 N.ar    1  ZINC000991934963   -0.5700
      5 C5         -0.6036   -0.8571   48.4102 C.ar    1  ZINC000991934963    0.1900
      6 C6         -1.0526    0.4474   48.5401 C.ar    1  ZINC000991934963   -0.2700
      7 C7         -0.1155    1.4671   48.5991 C.ar    1  ZINC000991934963    0.2200
      8 C8         -0.5565    2.9012   48.7401 C.3     1  ZINC000991934963    0.1000
      9 N9         -1.2395    3.0791   50.0285 N.3     1  ZINC000991934963   -0.4900
     10 C10        -2.7072    3.2998   49.8317 C.3     1  ZINC000991934963    0.0400
     11 C11        -3.0692    4.6005   50.6151 C.3     1  ZINC000991934963   -0.1400
     12 C12        -1.9485    4.6466   51.6516 C.3     1  ZINC000991934963    0.1700
     13 N13        -2.1634    3.6981   52.7472 N.am    1  ZINC000991934963   -0.7000
     14 C14        -3.1438    3.9172   53.6457 C.2     1  ZINC000991934963    0.5200
     15 O15        -3.8471    4.9005   53.5481 O.2     1  ZINC000991934963   -0.5300
     16 C16        -3.3661    2.9406   54.7716 C.3     1  ZINC000991934963   -0.1100
     17 C17        -4.8497    2.9214   55.1448 C.3     1  ZINC000991934963   -0.1300
     18 H18        -5.5035    2.3993   54.4460 H       1  ZINC000991934963    0.1200
     19 C19        -5.4153    4.1520   55.8564 C.3     1  ZINC000991934963   -0.1700
     20 C20        -5.2035    2.8492   56.6316 C.3     1  ZINC000991934963   -0.1200
     21 H21        -4.3793    2.8158   57.3440 H       1  ZINC000991934963    0.1000
     22 C22        -6.4480    2.0505   57.0243 C.3     1  ZINC000991934963   -0.1200
     23 C23        -6.5858    1.6326   58.4896 C.3     1  ZINC000991934963   -0.1800
     24 C24        -7.4757    2.7408   57.9233 C.3     1  ZINC000991934963   -0.1800
     25 C25        -1.4189    5.9935   52.1319 C.3     1  ZINC000991934963   -0.1200
     26 C26         0.0769    5.6747   52.4417 C.3     1  ZINC000991934963   -0.1200
     27 C27         0.4483    4.4559   51.5435 C.3     1  ZINC000991934963   -0.1000
     28 C28        -0.7637    4.2391   50.7021 C.3     1  ZINC000991934963    0.0500
     29 H29        -0.7547    5.0307   49.9528 H       1  ZINC000991934963    0.0400
     30 N30         1.1708    1.1652   48.5355 N.ar    1  ZINC000991934963   -0.5000
     31 H31         3.6445    1.2849   49.3292 H       1  ZINC000991934963    0.0600
     32 H32         4.8134    0.3919   48.3271 H       1  ZINC000991934963    0.1100
     33 H33         3.5813    1.4188   47.5553 H       1  ZINC000991934963    0.0600
     34 H34        -1.3072   -1.6750   48.3609 H       1  ZINC000991934963    0.1700
     35 H35        -2.1091    0.6649   48.5937 H       1  ZINC000991934963    0.1500
     36 H36         0.3146    3.5551   48.6973 H       1  ZINC000991934963    0.1000
     37 H37        -1.2397    3.1527   47.9289 H       1  ZINC000991934963    0.0600
     38 H38        -2.9270    3.4284   48.7718 H       1  ZINC000991934963    0.0600
     39 H39        -3.2690    2.4549   50.2303 H       1  ZINC000991934963    0.0800
     40 H40        -3.0355    5.4730   49.9626 H       1  ZINC000991934963    0.0800
     41 H41        -4.0435    4.5102   51.0954 H       1  ZINC000991934963    0.0900
     42 H42        -1.6001    2.9123   52.8260 H       1  ZINC000991934963    0.4000
     43 H43        -3.0583    1.9442   54.4544 H       1  ZINC000991934963    0.1000
     44 H44        -2.7777    3.2441   55.6374 H       1  ZINC000991934963    0.0900
     45 H45        -4.7304    4.9754   56.0587 H       1  ZINC000991934963    0.0900
     46 H46        -6.4412    4.4395   55.6260 H       1  ZINC000991934963    0.1000
     47 H47        -6.8234    1.3624   56.2668 H       1  ZINC000991934963    0.1000
     48 H48        -7.0519    0.6692   58.6965 H       1  ZINC000991934963    0.0900
     49 H49        -5.7899    1.9266   59.1738 H       1  ZINC000991934963    0.0900
     50 H50        -7.2654    3.7639   58.2349 H       1  ZINC000991934963    0.0900
     51 H51        -8.5273    2.5065   57.7576 H       1  ZINC000991934963    0.0900
     52 H52        -1.5003    6.7444   51.3460 H       1  ZINC000991934963    0.0800
     53 H53        -1.9409    6.3161   53.0329 H       1  ZINC000991934963    0.0800
     54 H54         0.7034    6.5308   52.1912 H       1  ZINC000991934963    0.0700
     55 H55         0.1960    5.4162   53.4939 H       1  ZINC000991934963    0.0700
     56 H56         1.3096    4.6912   50.9183 H       1  ZINC000991934963    0.0700
     57 H57         0.6493    3.5774   52.1565 H       1  ZINC000991934963    0.0700
@<TRIPOS>BOND
     1     1     2    1
     2     1    31    1
     3     1    32    1
     4     1    33    1
     5     2     3    1
     6     3    30   ar
     7     3     4   ar
     8     4     5   ar
     9     5     6   ar
    10     5    34    1
    11     6     7   ar
    12     6    35    1
    13     7     8    1
    14     7    30   ar
    15     8     9    1
    16     8    36    1
    17     8    37    1
    18     9    28    1
    19     9    10    1
    20    10    11    1
    21    10    38    1
    22    10    39    1
    23    11    12    1
    24    11    40    1
    25    11    41    1
    26    12    28    1
    27    12    13    1
    28    12    25    1
    29    13    14   am
    30    13    42    1
    31    14    15    2
    32    14    16    1
    33    16    17    1
    34    16    43    1
    35    16    44    1
    36    17    18    1
    37    17    20    1
    38    17    19    1
    39    19    20    1
    40    19    45    1
    41    19    46    1
    42    20    21    1
    43    20    22    1
    44    22    24    1
    45    22    23    1
    46    22    47    1
    47    23    24    1
    48    23    48    1
    49    23    49    1
    50    24    50    1
    51    24    51    1
    52    25    26    1
    53    25    52    1
    54    25    53    1
    55    26    27    1
    56    26    54    1
    57    26    55    1
    58    27    28    1
    59    27    56    1
    60    27    57    1
    61    28    29    1
@<TRIPOS>SUBSTRUCTURE
     1 ZINC000991934963        1 TEMP              0 ****  ****    0 ROOT


##########                                Name:    ZINC001039666729
##########                DOCK_Rotatable_Bonds:                   3
##########                         Heavy_Atoms:                  25
##########                    Molecular_Weight:             344.376
##########                DOCK_Rotatable_Bonds:                   3
##########                       Formal_Charge:          -0.0199998
##########                     HBond_Acceptors:                  10
##########                        HBond_Donors:                   2
##########                         Heavy_Atoms:                  25
##########                          Grid_Score:          -29.585129
##########                     Grid_vdw_energy:          -29.238552
##########                      Grid_es_energy:           -0.346577
##########           Internal_energy_repulsive:           40.542244

@<TRIPOS>MOLECULE
ZINC001039666729
 45 47 1 0 0
SMALL
USER_CHARGES


@<TRIPOS>ATOM
      1 C1         -1.9908    6.5173   48.4746 C.3     1  ZINC001039666729   -0.1100
      2 C2         -1.8425    5.0948   48.9495 C.ar    1  ZINC001039666729    0.2200
      3 C3         -2.6988    4.5838   49.9119 C.ar    1  ZINC001039666729   -0.3000
      4 C4         -2.5279    3.2704   50.3209 C.ar    1  ZINC001039666729    0.1900
      5 N5         -1.5586    2.5483   49.7838 N.ar    1  ZINC001039666729   -0.5800
      6 C6         -0.7567    3.0673   48.8654 C.ar    1  ZINC001039666729    0.6000
      7 N7          0.2471    2.2831   48.3240 N.pl3   1  ZINC001039666729   -0.5900
      8 C8          0.8177    1.0794   49.0024 C.3     1  ZINC001039666729    0.1200
      9 C9         -0.1404   -0.0902   48.7660 C.3     1  ZINC001039666729    0.0900
     10 N10        -0.2034   -0.3565   47.3072 N.am    1  ZINC001039666729   -0.7400
     11 C11        -1.2811    0.2049   46.6745 C.2     1  ZINC001039666729    0.5200
     12 O12        -2.0928    0.8590   47.2943 O.2     1  ZINC001039666729   -0.5200
     13 C13        -1.4350   -0.0084   45.1906 C.3     1  ZINC001039666729   -0.1500
     14 C14        -1.4033    1.3435   44.4748 C.3     1  ZINC001039666729    0.1100
     15 N15        -0.1360    2.0324   44.8312 N.am    1  ZINC001039666729   -0.6100
     16 C16         1.0063    1.8595   44.1372 C.2     1  ZINC001039666729    0.6100
     17 O17         2.0163    2.4468   44.4728 O.2     1  ZINC001039666729   -0.5200
     18 C18         1.0311    0.9554   42.9681 C.2     1  ZINC001039666729   -0.0400
     19 N19         0.0580    0.1610   42.5486 N.2     1  ZINC001039666729   -0.2500
     20 N20         0.4644   -0.4648   41.5014 N.pl3   1  ZINC001039666729   -0.2300
     21 N21         1.6667   -0.1273   41.1978 N.2     1  ZINC001039666729   -0.2800
     22 C22         2.0929    0.7621   42.0620 C.2     1  ZINC001039666729    0.0400
     23 C23        -0.2288    2.9278   46.0134 C.3     1  ZINC001039666729    0.1100
     24 C24         0.8766    2.5424   46.9931 C.3     1  ZINC001039666729    0.1300
     25 N25        -0.8966    4.3171   48.4488 N.ar    1  ZINC001039666729   -0.5700
     26 H26        -2.6729    6.5475   47.6249 H       1  ZINC001039666729    0.0800
     27 H27        -2.3898    7.1305   49.2827 H       1  ZINC001039666729    0.0800
     28 H28        -1.0170    6.9030   48.1726 H       1  ZINC001039666729    0.0800
     29 H29        -3.4820    5.1958   50.3343 H       1  ZINC001039666729    0.1400
     30 H30        -3.1781    2.8420   51.0692 H       1  ZINC001039666729    0.1600
     31 H31         1.7953    0.8467   48.5804 H       1  ZINC001039666729    0.0800
     32 H32         0.9122    1.2687   50.0717 H       1  ZINC001039666729    0.0900
     33 H33         0.2262   -0.9756   49.2853 H       1  ZINC001039666729    0.0800
     34 H34        -1.1329    0.1679   49.1352 H       1  ZINC001039666729    0.1000
     35 H35         0.4633   -0.8844   46.8405 H       1  ZINC001039666729    0.4100
     36 H36        -0.6181   -0.6315   44.8265 H       1  ZINC001039666729    0.0800
     37 H37        -2.3857   -0.5029   44.9912 H       1  ZINC001039666729    0.1100
     38 H38        -1.4469    1.1893   43.3967 H       1  ZINC001039666729    0.1100
     39 H39        -2.2523    1.9480   44.7942 H       1  ZINC001039666729    0.0900
     40 H40        -0.0667   -1.1077   41.0059 H       1  ZINC001039666729    0.4700
     41 H41         3.0604    1.2419   42.0800 H       1  ZINC001039666729    0.2100
     42 H42        -0.1009    3.9640   45.7002 H       1  ZINC001039666729    0.0800
     43 H43        -1.2007    2.8054   46.4913 H       1  ZINC001039666729    0.1200
     44 H44         1.5926    3.3595   47.0814 H       1  ZINC001039666729    0.0700
     45 H45         1.3833    1.6433   46.6423 H       1  ZINC001039666729    0.0900
@<TRIPOS>BOND
     1     1     2    1
     2     1    26    1
     3     1    27    1
     4     1    28    1
     5     2    25   ar
     6     2     3   ar
     7     3     4   ar
     8     3    29    1
     9     4     5   ar
    10     4    30    1
    11     5     6   ar
    12     6     7    1
    13     6    25   ar
    14     7    24    1
    15     7     8    1
    16     8     9    1
    17     8    31    1
    18     8    32    1
    19     9    10    1
    20     9    33    1
    21     9    34    1
    22    10    11   am
    23    10    35    1
    24    11    12    2
    25    11    13    1
    26    13    14    1
    27    13    36    1
    28    13    37    1
    29    14    15    1
    30    14    38    1
    31    14    39    1
    32    15    16   am
    33    15    23    1
    34    16    17    2
    35    16    18    1
    36    18    22    1
    37    18    19    2
    38    19    20    1
    39    20    21    1
    40    20    40    1
    41    21    22    2
    42    22    41    1
    43    23    24    1
    44    23    42    1
    45    23    43    1
    46    24    44    1
    47    24    45    1
@<TRIPOS>SUBSTRUCTURE
     1 ZINC001039666729        1 TEMP              0 ****  ****    0 ROOT


##########                                Name:    ZINC000119180466
##########                DOCK_Rotatable_Bonds:                  10
##########                         Heavy_Atoms:                  23
##########                    Molecular_Weight:             350.405
##########                DOCK_Rotatable_Bonds:                  10
##########                       Formal_Charge:           0.0299997
##########                     HBond_Acceptors:                   8
##########                        HBond_Donors:                   3
##########                         Heavy_Atoms:                  23
##########                          Grid_Score:          -29.571245
##########                     Grid_vdw_energy:          -29.882524
##########                      Grid_es_energy:            0.311279
##########           Internal_energy_repulsive:           12.093447

@<TRIPOS>MOLECULE
ZINC000119180466
 44 44 1 0 0
SMALL
USER_CHARGES


@<TRIPOS>ATOM
      1 C1          0.2694   -0.3249   47.8208 C.3     1  ZINC000119180466   -0.1300
      2 S2         -1.4531   -0.4617   47.2686 S.3     1  ZINC000119180466   -0.2200
      3 C3         -1.5655    0.7967   45.9669 C.3     1  ZINC000119180466   -0.0700
      4 H4         -2.5637    0.7788   45.5295 H       1  ZINC000119180466    0.1100
      5 C5         -0.5278    0.5021   44.8818 C.3     1  ZINC000119180466    0.0800
      6 O6         -1.1677    0.4804   43.6042 O.3     1  ZINC000119180466   -0.5600
      7 C7         -1.2968    2.1777   46.5681 C.3     1  ZINC000119180466    0.1900
      8 H8         -0.2452    2.2554   46.8442 H       1  ZINC000119180466    0.1000
      9 C9         -1.6344    3.2570   45.5376 C.3     1  ZINC000119180466   -0.1700
     10 N10        -2.1294    2.3621   47.7592 N.am    1  ZINC000119180466   -0.7200
     11 C11        -1.7616    3.2455   48.7083 C.2     1  ZINC000119180466    0.7100
     12 O12        -0.7395    3.8905   48.5752 O.2     1  ZINC000119180466   -0.6000
     13 N13        -2.5268    3.4141   49.8050 N.am    1  ZINC000119180466   -0.7400
     14 C14        -2.1279    4.3756   50.8358 C.3     1  ZINC000119180466    0.2000
     15 H15        -1.0402    4.4182   50.8916 H       1  ZINC000119180466    0.1000
     16 C16        -2.6750    5.7598   50.4810 C.3     1  ZINC000119180466   -0.1600
     17 C17        -2.6828    3.9425   52.1683 C.ar    1  ZINC000119180466   -0.0600
     18 C18        -3.9457    3.3853   52.2430 C.ar    1  ZINC000119180466   -0.1100
     19 C19        -4.4546    2.9881   53.4654 C.ar    1  ZINC000119180466   -0.0600
     20 C20        -3.7004    3.1476   54.6129 C.ar    1  ZINC000119180466   -0.1800
     21 C21        -4.2554    2.7151   55.9455 C.3     1  ZINC000119180466    0.5100
     22 F22        -4.1430    3.7670   56.8610 F       1  ZINC000119180466   -0.1800
     23 F23        -5.6023    2.3665   55.7989 F       1  ZINC000119180466   -0.1800
     24 F24        -3.5361    1.6104   56.4139 F       1  ZINC000119180466   -0.1800
     25 C25        -2.4371    3.7036   54.5380 C.ar    1  ZINC000119180466   -0.0600
     26 C26        -1.9266    4.0973   53.3151 C.ar    1  ZINC000119180466   -0.1100
     27 H27         0.4522    0.6824   48.1949 H       1  ZINC000119180466    0.0800
     28 H28         0.4545   -1.0470   48.6160 H       1  ZINC000119180466    0.1000
     29 H29         0.9367   -0.5280   46.9831 H       1  ZINC000119180466    0.0800
     30 H30         0.2380    1.2777   44.8914 H       1  ZINC000119180466    0.0500
     31 H31        -0.0664   -0.4665   45.0736 H       1  ZINC000119180466    0.0600
     32 H32        -1.6033    1.3109   43.3684 H       1  ZINC000119180466    0.3800
     33 H33        -2.6861    3.1793   45.2613 H       1  ZINC000119180466    0.0700
     34 H34        -1.4430    4.2409   45.9659 H       1  ZINC000119180466    0.0700
     35 H35        -1.0150    3.1198   44.6513 H       1  ZINC000119180466    0.0700
     36 H36        -2.9454    1.8485   47.8648 H       1  ZINC000119180466    0.4100
     37 H37        -3.3416    2.8987   49.9117 H       1  ZINC000119180466    0.4000
     38 H38        -2.3782    6.4751   51.2480 H       1  ZINC000119180466    0.0700
     39 H39        -2.2736    6.0729   49.5172 H       1  ZINC000119180466    0.0700
     40 H40        -3.7627    5.7172   50.4253 H       1  ZINC000119180466    0.0600
     41 H41        -4.5348    3.2607   51.3465 H       1  ZINC000119180466    0.1300
     42 H42        -5.4415    2.5534   53.5239 H       1  ZINC000119180466    0.1400
     43 H43        -1.8478    3.8280   55.4344 H       1  ZINC000119180466    0.1400
     44 H44        -0.9395    4.5317   53.2565 H       1  ZINC000119180466    0.1400
@<TRIPOS>BOND
     1     1     2    1
     2     1    27    1
     3     1    28    1
     4     1    29    1
     5     2     3    1
     6     3     4    1
     7     3     5    1
     8     3     7    1
     9     5     6    1
    10     5    30    1
    11     5    31    1
    12     6    32    1
    13     7     8    1
    14     7     9    1
    15     7    10    1
    16     9    33    1
    17     9    34    1
    18     9    35    1
    19    10    11   am
    20    10    36    1
    21    11    12    2
    22    11    13   am
    23    13    14    1
    24    13    37    1
    25    14    15    1
    26    14    16    1
    27    14    17    1
    28    16    38    1
    29    16    39    1
    30    16    40    1
    31    17    26   ar
    32    17    18   ar
    33    18    19   ar
    34    18    41    1
    35    19    20   ar
    36    19    42    1
    37    20    21    1
    38    20    25   ar
    39    21    22    1
    40    21    23    1
    41    21    24    1
    42    25    26   ar
    43    25    43    1
    44    26    44    1
@<TRIPOS>SUBSTRUCTURE
     1 ZINC000119180466        1 TEMP              0 ****  ****    0 ROOT


##########                                Name:    ZINC000425987417
##########                DOCK_Rotatable_Bonds:                   9
##########                         Heavy_Atoms:                  25
##########                    Molecular_Weight:             357.419
##########                DOCK_Rotatable_Bonds:                   9
##########                       Formal_Charge:         -0.00999992
##########                     HBond_Acceptors:                   7
##########                        HBond_Donors:                   1
##########                         Heavy_Atoms:                  25
##########                          Grid_Score:          -29.570215
##########                     Grid_vdw_energy:          -29.554499
##########                      Grid_es_energy:           -0.015716
##########           Internal_energy_repulsive:           13.729277

@<TRIPOS>MOLECULE
ZINC000425987417
 51 52 1 0 0
SMALL
USER_CHARGES


@<TRIPOS>ATOM
      1 C1         -5.2169    3.1185   53.3806 C.3     1  ZINC000425987417   -0.1500
      2 C2         -4.1554    4.1872   53.1115 C.3     1  ZINC000425987417    0.0400
      3 N3         -2.8492    3.5428   52.9209 N.3     1  ZINC000425987417   -0.5300
      4 C4         -2.2781    3.8874   51.6120 C.3     1  ZINC000425987417    0.0400
      5 C5         -3.1526    3.2988   50.5031 C.3     1  ZINC000425987417    0.1400
      6 N6         -2.3942    2.2811   49.7715 N.am    1  ZINC000425987417   -0.7500
      7 C7         -1.9344    2.5445   48.5322 C.2     1  ZINC000425987417    0.7200
      8 O8         -2.1490    3.6268   48.0216 O.2     1  ZINC000425987417   -0.5800
      9 N9         -1.2368    1.6082   47.8592 N.am    1  ZINC000425987417   -0.6200
     10 C10        -0.9599    0.2881   48.4495 C.3     1  ZINC000425987417    0.1300
     11 C11         0.5525    0.1600   48.6251 C.3     1  ZINC000425987417   -0.1000
     12 C12         1.2748    0.5755   47.3706 C.ar    1  ZINC000425987417   -0.0600
     13 C13         2.5797    0.1299   47.2010 C.ar    1  ZINC000425987417   -0.1200
     14 C14         3.3013    0.4819   46.0791 C.ar    1  ZINC000425987417   -0.1100
     15 C15         2.7238    1.2862   45.1146 C.ar    1  ZINC000425987417   -0.1200
     16 C16         1.4266    1.7275   45.2789 C.ar    1  ZINC000425987417   -0.1100
     17 C17         0.6977    1.3692   46.4044 C.ar    1  ZINC000425987417   -0.0900
     18 C18        -0.7281    1.8614   46.5069 C.3     1  ZINC000425987417    0.1800
     19 H19        -0.7579    2.9316   46.3026 H       1  ZINC000425987417    0.0900
     20 C20        -1.5959    1.1236   45.4853 C.3     1  ZINC000425987417   -0.1600
     21 C21        -1.9252    3.8942   54.0075 C.3     1  ZINC000425987417    0.0500
     22 C22        -2.1312    2.9358   55.1822 C.3     1  ZINC000425987417   -0.1600
     23 C23        -1.0767    3.2110   56.2560 C.3     1  ZINC000425987417    0.4500
     24 F24         0.1993    3.0082   55.7194 F       1  ZINC000425987417   -0.1800
     25 F25        -1.1928    4.5341   56.6954 F       1  ZINC000425987417   -0.1800
     26 F26        -1.2722    2.3424   57.3351 F       1  ZINC000425987417   -0.1900
     27 H27        -4.9762    2.5918   54.3040 H       1  ZINC000425987417    0.0500
     28 H28        -6.1936    3.5927   53.4767 H       1  ZINC000425987417    0.0600
     29 H29        -5.2370    2.4099   52.5527 H       1  ZINC000425987417    0.0700
     30 H30        -4.4204    4.7442   52.2129 H       1  ZINC000425987417    0.0800
     31 H31        -4.1036    4.8694   53.9600 H       1  ZINC000425987417    0.0400
     32 H32        -2.2389    4.9716   51.5070 H       1  ZINC000425987417    0.0500
     33 H33        -1.2707    3.4783   51.5361 H       1  ZINC000425987417    0.0800
     34 H34        -4.0402    2.8443   50.9431 H       1  ZINC000425987417    0.0800
     35 H35        -3.4522    4.0915   49.8174 H       1  ZINC000425987417    0.0700
     36 H36        -2.2230    1.4176   50.1790 H       1  ZINC000425987417    0.3900
     37 H37        -1.4519    0.2072   49.4189 H       1  ZINC000425987417    0.1000
     38 H38        -1.3219   -0.4963   47.7850 H       1  ZINC000425987417    0.0700
     39 H39         0.8728    0.7956   49.4505 H       1  ZINC000425987417    0.0800
     40 H40         0.8001   -0.8764   48.8547 H       1  ZINC000425987417    0.0900
     41 H41         3.0334   -0.4972   47.9541 H       1  ZINC000425987417    0.1200
     42 H42         4.3149    0.1303   45.9550 H       1  ZINC000425987417    0.1200
     43 H43         3.2855    1.5683   44.2364 H       1  ZINC000425987417    0.1200
     44 H44         0.9752    2.3564   44.5260 H       1  ZINC000425987417    0.1200
     45 H45        -1.5652    0.0531   45.6881 H       1  ZINC000425987417    0.0700
     46 H46        -2.6241    1.4780   45.5587 H       1  ZINC000425987417    0.0600
     47 H47        -1.2167    1.3142   44.4813 H       1  ZINC000425987417    0.0700
     48 H48        -0.8982    3.8160   53.6506 H       1  ZINC000425987417    0.0500
     49 H49        -2.1197    4.9158   54.3336 H       1  ZINC000425987417    0.0900
     50 H50        -3.1256    3.0851   55.6028 H       1  ZINC000425987417    0.1200
     51 H51        -2.0348    1.9076   54.8334 H       1  ZINC000425987417    0.1100
@<TRIPOS>BOND
     1     1     2    1
     2     1    27    1
     3     1    28    1
     4     1    29    1
     5     2     3    1
     6     2    30    1
     7     2    31    1
     8     3     4    1
     9     3    21    1
    10     4     5    1
    11     4    32    1
    12     4    33    1
    13     5     6    1
    14     5    34    1
    15     5    35    1
    16     6     7   am
    17     6    36    1
    18     7     8    2
    19     7     9   am
    20     9    18    1
    21     9    10    1
    22    10    11    1
    23    10    37    1
    24    10    38    1
    25    11    12    1
    26    11    39    1
    27    11    40    1
    28    12    17   ar
    29    12    13   ar
    30    13    14   ar
    31    13    41    1
    32    14    15   ar
    33    14    42    1
    34    15    16   ar
    35    15    43    1
    36    16    17   ar
    37    16    44    1
    38    17    18    1
    39    18    19    1
    40    18    20    1
    41    20    45    1
    42    20    46    1
    43    20    47    1
    44    21    22    1
    45    21    48    1
    46    21    49    1
    47    22    23    1
    48    22    50    1
    49    22    51    1
    50    23    24    1
    51    23    25    1
    52    23    26    1
@<TRIPOS>SUBSTRUCTURE
     1 ZINC000425987417        1 TEMP              0 ****  ****    0 ROOT


##########                                Name:    ZINC000089894387
##########                DOCK_Rotatable_Bonds:                   8
##########                         Heavy_Atoms:                  22
##########                    Molecular_Weight:             326.823
##########                DOCK_Rotatable_Bonds:                   8
##########                       Formal_Charge:          -0.0300003
##########                     HBond_Acceptors:                   6
##########                        HBond_Donors:                   2
##########                         Heavy_Atoms:                  22
##########                          Grid_Score:          -29.549994
##########                     Grid_vdw_energy:          -28.266983
##########                      Grid_es_energy:           -1.283011
##########           Internal_energy_repulsive:           21.952156

@<TRIPOS>MOLECULE
ZINC000089894387
 45 46 1 0 0
SMALL
USER_CHARGES


@<TRIPOS>ATOM
      1 C1         -3.9021    2.3884   55.2764 C.3     1  ZINC000089894387   -0.1700
      2 C2         -3.9501    3.8765   54.9239 C.3     1  ZINC000089894387    0.1700
      3 H3         -2.9666    4.3191   55.0818 H       1  ZINC000089894387    0.0900
      4 N4         -4.3365    4.0335   53.5196 N.am    1  ZINC000089894387   -0.7400
      5 C5         -3.3885    4.1252   52.5660 C.2     1  ZINC000089894387    0.7100
      6 O6         -2.2125    4.0791   52.8713 O.2     1  ZINC000089894387   -0.5900
      7 N7         -3.7441    4.2680   51.2738 N.am    1  ZINC000089894387   -0.7500
      8 C8         -2.7136    4.3659   50.2371 C.3     1  ZINC000089894387    0.1400
      9 C9         -2.3601    2.9644   49.7355 C.3     1  ZINC000089894387    0.0500
     10 O10        -1.6429    3.0662   48.5037 O.3     1  ZINC000089894387   -0.3100
     11 C11        -1.4664    1.9195   47.7960 C.ar    1  ZINC000089894387    0.1400
     12 C12        -1.8342    1.8644   46.4596 C.ar    1  ZINC000089894387   -0.2100
     13 C13        -1.6540    0.6977   45.7417 C.ar    1  ZINC000089894387   -0.0700
     14 C14        -1.1076   -0.4148   46.3536 C.ar    1  ZINC000089894387   -0.1500
     15 C15        -0.7399   -0.3630   47.6871 C.ar    1  ZINC000089894387    0.0000
     16 Cl16       -0.0539   -1.7619   48.4527 Cl      1  ZINC000089894387   -0.0600
     17 C17        -0.9127    0.8041   48.4076 C.ar    1  ZINC000089894387   -0.1500
     18 C18        -4.9748    4.5793   55.8165 C.3     1  ZINC000089894387   -0.1000
     19 C19        -6.3559    3.9521   55.6032 C.3     1  ZINC000089894387   -0.1600
     20 C20        -7.3583    4.6077   56.5566 C.3     1  ZINC000089894387    0.0600
     21 O21        -6.9091    4.4453   57.9035 O.3     1  ZINC000089894387   -0.3800
     22 C22        -5.6443    5.0528   58.1740 C.3     1  ZINC000089894387    0.0600
     23 C23        -4.5729    4.4150   57.2855 C.3     1  ZINC000089894387   -0.1500
     24 H24        -4.8857    1.9458   55.1186 H       1  ZINC000089894387    0.0600
     25 H25        -3.1721    1.8878   54.6405 H       1  ZINC000089894387    0.0600
     26 H26        -3.6146    2.2716   56.3213 H       1  ZINC000089894387    0.0700
     27 H27        -5.2747    4.0715   53.2761 H       1  ZINC000089894387    0.3900
     28 H28        -4.6823    4.3060   51.0303 H       1  ZINC000089894387    0.4000
     29 H29        -3.0888    4.9649   49.4074 H       1  ZINC000089894387    0.0800
     30 H30        -1.8235    4.8381   50.6530 H       1  ZINC000089894387    0.0900
     31 H31        -1.7403    2.4589   50.4761 H       1  ZINC000089894387    0.0900
     32 H32        -3.2752    2.3936   49.5769 H       1  ZINC000089894387    0.0700
     33 H33        -2.2615    2.7329   45.9807 H       1  ZINC000089894387    0.1300
     34 H34        -1.9408    0.6548   44.7014 H       1  ZINC000089894387    0.1400
     35 H35        -0.9676   -1.3257   45.7907 H       1  ZINC000089894387    0.1400
     36 H36        -0.6255    0.8446   49.4478 H       1  ZINC000089894387    0.1400
     37 H37        -5.0114    5.6393   55.5649 H       1  ZINC000089894387    0.0800
     38 H38        -6.6739    4.1131   54.5731 H       1  ZINC000089894387    0.0700
     39 H39        -6.3055    2.8824   55.8069 H       1  ZINC000089894387    0.0800
     40 H40        -7.4383    5.6699   56.3258 H       1  ZINC000089894387    0.0500
     41 H41        -8.3338    4.1356   56.4393 H       1  ZINC000089894387    0.0900
     42 H42        -5.7019    6.1209   57.9642 H       1  ZINC000089894387    0.0500
     43 H43        -5.3850    4.9014   59.2217 H       1  ZINC000089894387    0.1000
     44 H44        -4.4866    3.3547   57.5232 H       1  ZINC000089894387    0.0800
     45 H45        -3.6159    4.9072   57.4586 H       1  ZINC000089894387    0.0800
@<TRIPOS>BOND
     1     1     2    1
     2     1    24    1
     3     1    25    1
     4     1    26    1
     5     2     3    1
     6     2     4    1
     7     2    18    1
     8     4     5   am
     9     4    27    1
    10     5     6    2
    11     5     7   am
    12     7     8    1
    13     7    28    1
    14     8     9    1
    15     8    29    1
    16     8    30    1
    17     9    10    1
    18     9    31    1
    19     9    32    1
    20    10    11    1
    21    11    17   ar
    22    11    12   ar
    23    12    13   ar
    24    12    33    1
    25    13    14   ar
    26    13    34    1
    27    14    15   ar
    28    14    35    1
    29    15    16    1
    30    15    17   ar
    31    17    36    1
    32    18    23    1
    33    18    19    1
    34    18    37    1
    35    19    20    1
    36    19    38    1
    37    19    39    1
    38    20    21    1
    39    20    40    1
    40    20    41    1
    41    21    22    1
    42    22    23    1
    43    22    42    1
    44    22    43    1
    45    23    44    1
    46    23    45    1
@<TRIPOS>SUBSTRUCTURE
     1 ZINC000089894387        1 TEMP              0 ****  ****    0 ROOT


##########                                Name:    ZINC000898967786
##########                DOCK_Rotatable_Bonds:                   5
##########                         Heavy_Atoms:                  25
##########                    Molecular_Weight:             356.448
##########                DOCK_Rotatable_Bonds:                   5
##########                       Formal_Charge:        -2.38419e-07
##########                     HBond_Acceptors:                   7
##########                        HBond_Donors:                   1
##########                         Heavy_Atoms:                  25
##########                          Grid_Score:          -29.532270
##########                     Grid_vdw_energy:          -28.411449
##########                      Grid_es_energy:           -1.120821
##########           Internal_energy_repulsive:           10.147968

@<TRIPOS>MOLECULE
ZINC000898967786
 45 48 1 0 0
SMALL
USER_CHARGES


@<TRIPOS>ATOM
      1 C1          0.1895    4.2904   52.5834 C.3     1  ZINC000898967786   -0.0800
      2 C2         -1.0281    3.8322   53.3441 C.2     1  ZINC000898967786    0.0900
      3 C3         -2.2929    3.8132   52.8694 C.2     1  ZINC000898967786   -0.1000
      4 C4         -2.7392    4.2425   51.4956 C.3     1  ZINC000898967786    0.2200
      5 N5         -2.5474    3.1380   50.5524 N.am    1  ZINC000898967786   -0.7400
      6 C6         -1.9221    3.3552   49.3784 C.2     1  ZINC000898967786    0.7100
      7 O7         -1.5171    4.4678   49.1021 O.2     1  ZINC000898967786   -0.5800
      8 N8         -1.7457    2.3390   48.5108 N.am    1  ZINC000898967786   -0.6300
      9 C9         -2.2271    0.9841   48.8233 C.3     1  ZINC000898967786    0.0900
     10 C10        -1.0766   -0.0026   48.5943 C.3     1  ZINC000898967786    0.0500
     11 O11        -0.5413    0.1943   47.2834 O.3     1  ZINC000898967786   -0.3700
     12 C12         0.0277    1.4886   47.0720 C.3     1  ZINC000898967786    0.1400
     13 H13         0.8119    1.6662   47.8079 H       1  ZINC000898967786    0.0700
     14 C14         0.6131    1.5608   45.6852 C.2     1  ZINC000898967786   -0.1100
     15 C15         0.2659    0.7138   44.7150 C.2     1  ZINC000898967786   -0.1800
     16 S16         1.1512    1.1045   43.2463 S.3     1  ZINC000898967786    0.1100
     17 C17         1.9671    2.4355   44.0564 C.2     1  ZINC000898967786   -0.2100
     18 C18         1.5475    2.5146   45.3201 C.2     1  ZINC000898967786   -0.1300
     19 C19        -1.0713    2.5530   47.2205 C.3     1  ZINC000898967786    0.0900
     20 N20        -3.0926    3.3307   53.8694 N.pl3   1  ZINC000898967786   -0.3500
     21 C21        -4.4356    3.1002   53.9475 C.2     1  ZINC000898967786    0.0600
     22 C22        -4.9838    2.6086   55.0784 C.2     1  ZINC000898967786   -0.1400
     23 C23        -4.1766    2.3275   56.1932 C.2     1  ZINC000898967786   -0.1000
     24 C24        -2.8367    2.5526   56.1288 C.2     1  ZINC000898967786   -0.0800
     25 C25        -2.2792    3.0658   54.9405 C.2     1  ZINC000898967786    0.2400
     26 N26        -1.0360    3.3721   54.5973 N.2     1  ZINC000898967786   -0.4900
     27 H27         0.6243    3.4448   52.0504 H       1  ZINC000898967786    0.0800
     28 H28        -0.0975    5.0618   51.8688 H       1  ZINC000898967786    0.0700
     29 H29         0.9224    4.6958   53.2810 H       1  ZINC000898967786    0.0800
     30 H30        -3.7940    4.5161   51.5251 H       1  ZINC000898967786    0.1000
     31 H31        -2.1500    5.1013   51.1740 H       1  ZINC000898967786    0.0700
     32 H32        -2.8706    2.2504   50.7729 H       1  ZINC000898967786    0.4000
     33 H33        -2.5476    0.9393   49.8641 H       1  ZINC000898967786    0.1100
     34 H34        -3.0626    0.7317   48.1702 H       1  ZINC000898967786    0.0800
     35 H35        -0.2964    0.1695   49.3358 H       1  ZINC000898967786    0.0600
     36 H36        -1.4484   -1.0232   48.6862 H       1  ZINC000898967786    0.1100
     37 H37        -0.4490   -0.0893   44.8159 H       1  ZINC000898967786    0.1700
     38 H38         2.6931    3.0914   43.5993 H       1  ZINC000898967786    0.1700
     39 H39         1.9150    3.2610   46.0086 H       1  ZINC000898967786    0.1400
     40 H40        -1.7882    2.4568   46.4050 H       1  ZINC000898967786    0.0800
     41 H41        -0.6246    3.5471   47.2019 H       1  ZINC000898967786    0.0900
     42 H42        -5.0654    3.3134   53.0964 H       1  ZINC000898967786    0.1600
     43 H43        -6.0480    2.4308   55.1268 H       1  ZINC000898967786    0.1500
     44 H44        -4.6179    1.9349   57.0974 H       1  ZINC000898967786    0.1500
     45 H45        -2.2064    2.3405   56.9798 H       1  ZINC000898967786    0.1500
@<TRIPOS>BOND
     1     1     2    1
     2     1    27    1
     3     1    28    1
     4     1    29    1
     5     2    26    1
     6     2     3    2
     7     3     4    1
     8     3    20    1
     9     4     5    1
    10     4    30    1
    11     4    31    1
    12     5     6   am
    13     5    32    1
    14     6     7    2
    15     6     8   am
    16     8    19    1
    17     8     9    1
    18     9    10    1
    19     9    33    1
    20     9    34    1
    21    10    11    1
    22    10    35    1
    23    10    36    1
    24    11    12    1
    25    12    13    1
    26    12    14    1
    27    12    19    1
    28    14    18    1
    29    14    15    2
    30    15    16    1
    31    15    37    1
    32    16    17    1
    33    17    18    2
    34    17    38    1
    35    18    39    1
    36    19    40    1
    37    19    41    1
    38    20    25    1
    39    20    21    1
    40    21    22    2
    41    21    42    1
    42    22    23    1
    43    22    43    1
    44    23    24    2
    45    23    44    1
    46    24    25    1
    47    24    45    1
    48    25    26    2
@<TRIPOS>SUBSTRUCTURE
     1 ZINC000898967786        1 TEMP              0 ****  ****    0 ROOT


##########                                Name:    ZINC000182378855
##########                DOCK_Rotatable_Bonds:                   8
##########                         Heavy_Atoms:                  27
##########                    Molecular_Weight:              394.83
##########                DOCK_Rotatable_Bonds:                   8
##########                       Formal_Charge:          -0.0200001
##########                     HBond_Acceptors:                   8
##########                        HBond_Donors:                   1
##########                         Heavy_Atoms:                  27
##########                          Grid_Score:          -29.528301
##########                     Grid_vdw_energy:          -29.512257
##########                      Grid_es_energy:           -0.016044
##########           Internal_energy_repulsive:           10.945807

@<TRIPOS>MOLECULE
ZINC000182378855
 47 49 1 0 0
SMALL
USER_CHARGES


@<TRIPOS>ATOM
      1 C1        -13.6886   -5.1486   57.6392 C.3     1  ZINC000182378855    0.0300
      2 O2        -14.2142   -3.8397   57.4099 O.3     1  ZINC000182378855   -0.3900
      3 C3        -13.3491   -2.9903   56.6535 C.3     1  ZINC000182378855    0.0600
      4 C4        -12.0584   -2.7479   57.4383 C.3     1  ZINC000182378855    0.0700
      5 O5        -11.3727   -1.6199   56.8909 O.3     1  ZINC000182378855   -0.2900
      6 C6        -10.3042   -1.1524   57.5842 C.ar    1  ZINC000182378855    0.3300
      7 C7         -9.5100   -0.1565   57.0318 C.ar    1  ZINC000182378855   -0.1300
      8 C8         -8.4140    0.3141   57.7575 C.ar    1  ZINC000182378855   -0.0600
      9 C9         -7.5381    1.3762   57.2094 C.2     1  ZINC000182378855    0.5600
     10 O10        -6.5020    1.6617   57.7763 O.2     1  ZINC000182378855   -0.5200
     11 N11        -7.8907    2.0254   56.0823 N.am    1  ZINC000182378855   -0.7100
     12 C12        -7.0256    3.0767   55.5413 C.3     1  ZINC000182378855    0.1200
     13 H13        -5.9815    2.7656   55.5747 H       1  ZINC000182378855    0.1100
     14 C14        -7.2228    4.3953   56.3224 C.3     1  ZINC000182378855   -0.1700
     15 C15        -7.7351    5.3896   55.2570 C.3     1  ZINC000182378855    0.0400
     16 O16        -8.3304    4.5609   54.2348 O.3     1  ZINC000182378855   -0.3600
     17 C17        -7.4423    3.4305   54.0965 C.3     1  ZINC000182378855    0.1100
     18 H18        -6.5681    3.7047   53.5059 H       1  ZINC000182378855    0.1000
     19 C19        -8.1642    2.2709   53.4599 C.ar    1  ZINC000182378855   -0.0500
     20 C20        -7.4576    1.3351   52.7281 C.ar    1  ZINC000182378855   -0.1100
     21 C21        -8.1175    0.2675   52.1481 C.ar    1  ZINC000182378855   -0.0800
     22 C22        -9.4871    0.1410   52.2903 C.ar    1  ZINC000182378855   -0.0700
     23 Cl23      -10.3168   -1.1958   51.5567 Cl      1  ZINC000182378855   -0.0400
     24 C24       -10.1969    1.0821   53.0192 C.ar    1  ZINC000182378855    0.1200
     25 F25       -11.5350    0.9599   53.1595 F       1  ZINC000182378855   -0.1200
     26 C26        -9.5336    2.1469   53.6037 C.ar    1  ZINC000182378855   -0.1300
     27 C27        -8.1652   -0.2438   59.0164 C.ar    1  ZINC000182378855   -0.1900
     28 C28        -9.0047   -1.2307   59.4917 C.ar    1  ZINC000182378855    0.1400
     29 N29       -10.0343   -1.6468   58.7802 N.ar    1  ZINC000182378855   -0.5200
     30 H30       -12.7509   -5.0723   58.1896 H       1  ZINC000182378855    0.0400
     31 H31       -14.4042   -5.7310   58.2196 H       1  ZINC000182378855    0.0900
     32 H32       -13.5097   -5.6410   56.6833 H       1  ZINC000182378855    0.0400
     33 H33       -13.1120   -3.4673   55.7025 H       1  ZINC000182378855    0.0600
     34 H34       -13.8460   -2.0380   56.4683 H       1  ZINC000182378855    0.0700
     35 H35       -12.2995   -2.5543   58.4835 H       1  ZINC000182378855    0.0800
     36 H36       -11.4205   -3.6291   57.3698 H       1  ZINC000182378855    0.0800
     37 H37        -9.7363    0.2476   56.0561 H       1  ZINC000182378855    0.1600
     38 H38        -8.7173    1.7967   55.6292 H       1  ZINC000182378855    0.4000
     39 H39        -7.9639    4.2648   57.1109 H       1  ZINC000182378855    0.0900
     40 H40        -6.2757    4.7372   56.7398 H       1  ZINC000182378855    0.0900
     41 H41        -8.4824    6.0558   55.6880 H       1  ZINC000182378855    0.1000
     42 H42        -6.9063    5.9657   54.8458 H       1  ZINC000182378855    0.0700
     43 H43        -6.3885    1.4359   52.6126 H       1  ZINC000182378855    0.1500
     44 H44        -7.5637   -0.4653   51.5802 H       1  ZINC000182378855    0.1500
     45 H45       -10.0856    2.8807   54.1723 H       1  ZINC000182378855    0.1500
     46 H46        -7.3274    0.0938   59.6084 H       1  ZINC000182378855    0.1400
     47 H47        -8.8184   -1.6656   60.4626 H       1  ZINC000182378855    0.1700
@<TRIPOS>BOND
     1     1     2    1
     2     1    30    1
     3     1    31    1
     4     1    32    1
     5     2     3    1
     6     3     4    1
     7     3    33    1
     8     3    34    1
     9     4     5    1
    10     4    35    1
    11     4    36    1
    12     5     6    1
    13     6    29   ar
    14     6     7   ar
    15     7     8   ar
    16     7    37    1
    17     8     9    1
    18     8    27   ar
    19     9    10    2
    20     9    11   am
    21    11    12    1
    22    11    38    1
    23    12    13    1
    24    12    17    1
    25    12    14    1
    26    14    15    1
    27    14    39    1
    28    14    40    1
    29    15    16    1
    30    15    41    1
    31    15    42    1
    32    16    17    1
    33    17    18    1
    34    17    19    1
    35    19    26   ar
    36    19    20   ar
    37    20    21   ar
    38    20    43    1
    39    21    22   ar
    40    21    44    1
    41    22    23    1
    42    22    24   ar
    43    24    25    1
    44    24    26   ar
    45    26    45    1
    46    27    28   ar
    47    27    46    1
    48    28    29   ar
    49    28    47    1
@<TRIPOS>SUBSTRUCTURE
     1 ZINC000182378855        1 TEMP              0 ****  ****    0 ROOT


##########                                Name:    ZINC000555499135
##########                DOCK_Rotatable_Bonds:                   8
##########                         Heavy_Atoms:                  26
##########                    Molecular_Weight:             377.554
##########                DOCK_Rotatable_Bonds:                   8
##########                       Formal_Charge:           0.0399999
##########                     HBond_Acceptors:                   7
##########                        HBond_Donors:                   0
##########                         Heavy_Atoms:                  26
##########                          Grid_Score:          -29.527805
##########                     Grid_vdw_energy:          -29.067883
##########                      Grid_es_energy:           -0.459922
##########           Internal_energy_repulsive:            9.176514

@<TRIPOS>MOLECULE
ZINC000555499135
 57 59 1 0 0
SMALL
USER_CHARGES


@<TRIPOS>ATOM
      1 C1        -17.0025    1.4304   60.5916 C.3     1  ZINC000555499135   -0.1500
      2 C2        -15.9965    0.5860   61.3765 C.3     1  ZINC000555499135   -0.0500
      3 C3        -15.4476   -0.4983   60.4855 C.2     1  ZINC000555499135   -0.2100
      4 C4        -15.0162   -1.6991   60.8829 C.2     1  ZINC000555499135    0.0300
      5 N5        -14.5813   -2.4733   59.9092 N.2     1  ZINC000555499135   -0.4500
      6 C6        -14.6218   -1.9925   58.7126 C.2     1  ZINC000555499135    0.0400
      7 C7        -14.1708   -2.7226   57.4738 C.3     1  ZINC000555499135    0.1500
      8 N8        -12.7676   -3.1289   57.6285 N.3     1  ZINC000555499135   -0.4500
      9 C9        -12.6416   -4.5925   57.6404 C.3     1  ZINC000555499135    0.0100
     10 C10       -11.9766   -2.5705   56.6371 C.2     1  ZINC000555499135    0.3500
     11 N11       -11.8105   -3.0314   55.4198 N.2     1  ZINC000555499135   -0.3100
     12 N12       -11.0110   -2.2647   54.7679 N.2     1  ZINC000555499135   -0.2900
     13 C13       -10.6227   -1.2774   55.5244 C.2     1  ZINC000555499135    0.2100
     14 C14        -9.6854   -0.1651   55.1302 C.3     1  ZINC000555499135   -0.0300
     15 C15       -10.1978    0.5053   53.8539 C.3     1  ZINC000555499135   -0.0900
     16 C16       -10.7827    1.8766   54.1977 C.3     1  ZINC000555499135   -0.1500
     17 C17        -9.0405    0.6770   52.8680 C.3     1  ZINC000555499135   -0.1500
     18 N18       -11.2281   -1.4342   56.7404 N.pl3   1  ZINC000555499135   -0.4600
     19 C19       -11.0941   -0.5671   57.9136 C.3     1  ZINC000555499135    0.1100
     20 C20        -9.8192   -0.9335   58.6757 C.3     1  ZINC000555499135    0.0700
     21 H21        -9.2582   -1.6770   58.1094 H       1  ZINC000555499135    0.0700
     22 C22       -10.1904   -1.5083   60.0452 C.3     1  ZINC000555499135   -0.1500
     23 C23        -8.9087   -1.8166   60.8254 C.3     1  ZINC000555499135   -0.1200
     24 C24        -8.0730   -0.5379   60.9387 C.3     1  ZINC000555499135   -0.1600
     25 C25        -7.7836   -0.0005   59.5347 C.3     1  ZINC000555499135    0.0600
     26 O26        -9.0169    0.2357   58.8526 O.3     1  ZINC000555499135   -0.3700
     27 S27       -15.2683   -0.4098   58.7349 S.3     1  ZINC000555499135    0.1200
     28 H28       -16.5058    1.8823   59.7330 H       1  ZINC000555499135    0.0600
     29 H29       -17.8188    0.7957   60.2467 H       1  ZINC000555499135    0.0600
     30 H30       -17.3995    2.2147   61.2360 H       1  ZINC000555499135    0.0700
     31 H31       -15.1803    1.2208   61.7213 H       1  ZINC000555499135    0.0900
     32 H32       -16.4931    0.1342   62.2351 H       1  ZINC000555499135    0.0800
     33 H33       -15.0235   -2.0096   61.9172 H       1  ZINC000555499135    0.1800
     34 H34       -14.7910   -3.6068   57.3271 H       1  ZINC000555499135    0.0800
     35 H35       -14.2654   -2.0649   56.6097 H       1  ZINC000555499135    0.1200
     36 H36       -12.9083   -4.9881   56.6603 H       1  ZINC000555499135    0.0500
     37 H37       -11.6132   -4.8668   57.8754 H       1  ZINC000555499135    0.0800
     38 H38       -13.3099   -5.0085   58.3944 H       1  ZINC000555499135    0.0900
     39 H39        -9.6369    0.5707   55.9328 H       1  ZINC000555499135    0.1000
     40 H40        -8.6910   -0.5742   54.9517 H       1  ZINC000555499135    0.1000
     41 H41       -10.9708   -0.1165   53.4021 H       1  ZINC000555499135    0.0800
     42 H42       -11.5809    1.7579   54.9304 H       1  ZINC000555499135    0.0500
     43 H43       -10.0000    2.5118   54.6126 H       1  ZINC000555499135    0.0600
     44 H44       -11.1838    2.3372   53.2949 H       1  ZINC000555499135    0.0600
     45 H45        -8.6238   -0.3000   52.6231 H       1  ZINC000555499135    0.0600
     46 H46        -9.4055    1.1546   51.9588 H       1  ZINC000555499135    0.0600
     47 H47        -8.2675    1.2987   53.3199 H       1  ZINC000555499135    0.0600
     48 H48       -11.0391    0.4730   57.5921 H       1  ZINC000555499135    0.1100
     49 H49       -11.9579   -0.7009   58.5648 H       1  ZINC000555499135    0.1200
     50 H50       -10.7861   -0.7806   60.5963 H       1  ZINC000555499135    0.0800
     51 H51       -10.7650   -2.4249   59.9120 H       1  ZINC000555499135    0.0800
     52 H52        -9.1658   -2.1737   61.8226 H       1  ZINC000555499135    0.0700
     53 H53        -8.3365   -2.5808   60.2993 H       1  ZINC000555499135    0.0600
     54 H54        -8.6260    0.2094   61.5078 H       1  ZINC000555499135    0.0700
     55 H55        -7.1334   -0.7604   61.4444 H       1  ZINC000555499135    0.0800
     56 H56        -7.2255    0.9326   59.6105 H       1  ZINC000555499135    0.1000
     57 H57        -7.1958   -0.7318   58.9797 H       1  ZINC000555499135    0.0500
@<TRIPOS>BOND
     1     1     2    1
     2     1    28    1
     3     1    29    1
     4     1    30    1
     5     2     3    1
     6     2    31    1
     7     2    32    1
     8     3    27    1
     9     3     4    2
    10     4     5    1
    11     4    33    1
    12     5     6    2
    13     6     7    1
    14     6    27    1
    15     7     8    1
    16     7    34    1
    17     7    35    1
    18     8     9    1
    19     8    10    1
    20     9    36    1
    21     9    37    1
    22     9    38    1
    23    10    18    1
    24    10    11    2
    25    11    12    1
    26    12    13    2
    27    13    14    1
    28    13    18    1
    29    14    15    1
    30    14    39    1
    31    14    40    1
    32    15    16    1
    33    15    17    1
    34    15    41    1
    35    16    42    1
    36    16    43    1
    37    16    44    1
    38    17    45    1
    39    17    46    1
    40    17    47    1
    41    18    19    1
    42    19    20    1
    43    19    48    1
    44    19    49    1
    45    20    21    1
    46    20    26    1
    47    20    22    1
    48    22    23    1
    49    22    50    1
    50    22    51    1
    51    23    24    1
    52    23    52    1
    53    23    53    1
    54    24    25    1
    55    24    54    1
    56    24    55    1
    57    25    26    1
    58    25    56    1
    59    25    57    1
@<TRIPOS>SUBSTRUCTURE
     1 ZINC000555499135        1 TEMP              0 ****  ****    0 ROOT


##########                                Name:    ZINC000330515179
##########                DOCK_Rotatable_Bonds:                   4
##########                         Heavy_Atoms:                  21
##########                    Molecular_Weight:             378.287
##########                DOCK_Rotatable_Bonds:                   4
##########                       Formal_Charge:           0.0200002
##########                     HBond_Acceptors:                   6
##########                        HBond_Donors:                   0
##########                         Heavy_Atoms:                  21
##########                          Grid_Score:          -29.515846
##########                     Grid_vdw_energy:          -29.663643
##########                      Grid_es_energy:            0.147797
##########           Internal_energy_repulsive:            7.943733

@<TRIPOS>MOLECULE
ZINC000330515179
 41 42 1 0 0
SMALL
USER_CHARGES


@<TRIPOS>ATOM
      1 C1         -3.0880    4.6944   50.6417 C.3     1  ZINC000330515179    0.0300
      2 O2         -2.5493    3.9279   49.5626 O.3     1  ZINC000330515179   -0.3800
      3 C3         -2.0406    2.6511   49.9538 C.3     1  ZINC000330515179    0.0700
      4 C4         -1.3038    2.0126   48.7746 C.3     1  ZINC000330515179    0.0800
      5 H5         -0.4040    2.5867   48.5536 H       1  ZINC000330515179    0.0800
      6 C6         -2.2189    2.0014   47.5447 C.3     1  ZINC000330515179    0.0900
      7 N7         -1.5623    1.2194   46.4850 N.am    1  ZINC000330515179   -1.0000
      8 S8         -1.3976    1.8285   44.9539 S.o2    1  ZINC000330515179    2.6900
      9 O9         -1.9520    0.8594   44.0748 O.2     1  ZINC000330515179   -0.9400
     10 O10        -1.8459    3.1759   45.0076 O.2     1  ZINC000330515179   -0.9500
     11 C11         0.3274    1.8918   44.6005 C.ar    1  ZINC000330515179   -0.6700
     12 C12         1.0964    2.9288   45.0947 C.ar    1  ZINC000330515179   -0.0100
     13 C13         2.4497    2.9786   44.8181 C.ar    1  ZINC000330515179   -0.1100
     14 C14         3.0346    1.9906   44.0467 C.ar    1  ZINC000330515179   -0.0400
     15 Br15        4.8862    2.0578   43.6685 Br      1  ZINC000330515179   -0.0300
     16 C16         2.2648    0.9530   43.5525 C.ar    1  ZINC000330515179   -0.1100
     17 C17         0.9125    0.9012   43.8340 C.ar    1  ZINC000330515179   -0.0100
     18 C18        -1.0570   -0.1199   46.8259 C.3     1  ZINC000330515179    0.1000
     19 C19        -0.1986   -0.0053   48.0908 C.3     1  ZINC000330515179    0.1000
     20 C20         0.1808   -1.4046   48.5795 C.3     1  ZINC000330515179   -0.1400
     21 C21         1.0713    0.7880   47.7764 C.3     1  ZINC000330515179   -0.1800
     22 O22        -0.9440    0.6696   49.1071 O.3     1  ZINC000330515179   -0.3500
     23 H23        -3.4530    5.6489   50.2626 H       1  ZINC000330515179    0.0900
     24 H24        -3.9113    4.1470   51.1007 H       1  ZINC000330515179    0.0400
     25 H25        -2.3106    4.8718   51.3849 H       1  ZINC000330515179    0.0400
     26 H26        -1.3511    2.7750   50.7889 H       1  ZINC000330515179    0.0600
     27 H27        -2.8668    2.0082   50.2572 H       1  ZINC000330515179    0.0700
     28 H28        -3.1736    1.5426   47.8016 H       1  ZINC000330515179    0.0900
     29 H29        -2.3827    3.0223   47.1997 H       1  ZINC000330515179    0.1000
     30 H30         0.6395    3.7005   45.6966 H       1  ZINC000330515179    0.1500
     31 H31         3.0503    3.7891   45.2039 H       1  ZINC000330515179    0.1500
     32 H32         2.7209    0.1814   42.9503 H       1  ZINC000330515179    0.1500
     33 H33         0.3114    0.0913   43.4482 H       1  ZINC000330515179    0.1500
     34 H34        -1.8948   -0.7923   47.0104 H       1  ZINC000330515179    0.0900
     35 H35        -0.4515   -0.5037   46.0048 H       1  ZINC000330515179    0.1000
     36 H36         0.7459   -1.9199   47.8029 H       1  ZINC000330515179    0.0800
     37 H37         0.7911   -1.3223   49.4789 H       1  ZINC000330515179    0.0700
     38 H38        -0.7244   -1.9685   48.8050 H       1  ZINC000330515179    0.0700
     39 H39         0.8004    1.7854   47.4301 H       1  ZINC000330515179    0.0600
     40 H40         1.6811    0.8691   48.6762 H       1  ZINC000330515179    0.0700
     41 H41         1.6373    0.2747   46.9991 H       1  ZINC000330515179    0.0700
@<TRIPOS>BOND
     1     1     2    1
     2     1    23    1
     3     1    24    1
     4     1    25    1
     5     2     3    1
     6     3     4    1
     7     3    26    1
     8     3    27    1
     9     4     5    1
    10     4    22    1
    11     4     6    1
    12     6     7    1
    13     6    28    1
    14     6    29    1
    15     7     8   am
    16     7    18    1
    17     8     9    2
    18     8    10    2
    19     8    11    1
    20    11    17   ar
    21    11    12   ar
    22    12    13   ar
    23    12    30    1
    24    13    14   ar
    25    13    31    1
    26    14    15    1
    27    14    16   ar
    28    16    17   ar
    29    16    32    1
    30    17    33    1
    31    18    19    1
    32    18    34    1
    33    18    35    1
    34    19    20    1
    35    19    21    1
    36    19    22    1
    37    20    36    1
    38    20    37    1
    39    20    38    1
    40    21    39    1
    41    21    40    1
    42    21    41    1
@<TRIPOS>SUBSTRUCTURE
     1 ZINC000330515179        1 TEMP              0 ****  ****    0 ROOT


##########                                Name:    ZINC000124554441
##########                DOCK_Rotatable_Bonds:                   9
##########                         Heavy_Atoms:                  26
##########                    Molecular_Weight:             375.898
##########                DOCK_Rotatable_Bonds:                   9
##########                       Formal_Charge:         -0.00999991
##########                     HBond_Acceptors:                   6
##########                        HBond_Donors:                   1
##########                         Heavy_Atoms:                  26
##########                          Grid_Score:          -29.514368
##########                     Grid_vdw_energy:          -27.048223
##########                      Grid_es_energy:           -2.466145
##########           Internal_energy_repulsive:           11.713947

@<TRIPOS>MOLECULE
ZINC000124554441
 52 53 1 0 0
SMALL
USER_CHARGES


@<TRIPOS>ATOM
      1 C1          1.9815   -0.0350   60.6660 C.3     1  ZINC000124554441   -0.1500
      2 C2          1.8549    1.3683   60.0697 C.3     1  ZINC000124554441   -0.1300
      3 C3          1.5099    1.2614   58.5830 C.3     1  ZINC000124554441   -0.1200
      4 C4          2.7987    1.2703   57.7584 C.3     1  ZINC000124554441   -0.1200
      5 C5          2.4704    0.9651   56.2956 C.3     1  ZINC000124554441   -0.1300
      6 C6          1.9109    2.2216   55.6255 C.3     1  ZINC000124554441    0.1200
      7 N7          0.4602    2.0878   55.4709 N.am    1  ZINC000124554441   -0.7300
      8 C8         -0.2934    3.1753   55.2141 C.2     1  ZINC000124554441    0.5200
      9 O9          0.2297    4.2645   55.1097 O.2     1  ZINC000124554441   -0.5300
     10 C10        -1.7858    3.0379   55.0569 C.3     1  ZINC000124554441   -0.1200
     11 H11        -2.0123    2.1115   54.5292 H       1  ZINC000124554441    0.1000
     12 C12        -2.4448    3.0134   56.4379 C.3     1  ZINC000124554441   -0.1000
     13 C13        -3.9572    2.8408   56.2803 C.3     1  ZINC000124554441   -0.1400
     14 C14        -4.5236    4.0283   55.4954 C.3     1  ZINC000124554441    0.0900
     15 N15        -3.7942    4.1469   54.2255 N.am    1  ZINC000124554441   -0.6000
     16 C16        -4.4578    4.1813   53.0530 C.2     1  ZINC000124554441    0.5600
     17 O17        -5.6713    4.1140   53.0393 O.2     1  ZINC000124554441   -0.5200
     18 C18        -3.7093    4.3009   51.7827 C.ar    1  ZINC000124554441   -0.0900
     19 C19        -3.4024    5.5627   51.2698 C.ar    1  ZINC000124554441   -0.0900
     20 C20        -2.7056    5.6754   50.0872 C.ar    1  ZINC000124554441   -0.0600
     21 C21        -2.3058    4.5273   49.3999 C.ar    1  ZINC000124554441    0.0100
     22 C22        -1.5813    4.6443   48.1702 C.1     1  ZINC000124554441    0.2400
     23 N23        -1.0064    4.7372   47.1947 N.1     1  ZINC000124554441   -0.3800
     24 C24        -2.6129    3.2635   49.9131 C.ar    1  ZINC000124554441    0.0000
     25 Cl25       -2.1162    1.8354   49.0600 Cl      1  ZINC000124554441   -0.0400
     26 C26        -3.3053    3.1521   51.1002 C.ar    1  ZINC000124554441   -0.0600
     27 C27        -2.3274    4.2272   54.2574 C.3     1  ZINC000124554441    0.1200
     28 H28         1.0366   -0.5659   60.5495 H       1  ZINC000124554441    0.0500
     29 H29         2.7706   -0.5800   60.1482 H       1  ZINC000124554441    0.0500
     30 H30         2.2272    0.0411   61.7252 H       1  ZINC000124554441    0.0500
     31 H31         1.0656    1.9133   60.5875 H       1  ZINC000124554441    0.0600
     32 H32         2.7997    1.8992   60.1862 H       1  ZINC000124554441    0.0600
     33 H33         0.9688    0.3328   58.4013 H       1  ZINC000124554441    0.0600
     34 H34         0.8870    2.1075   58.2927 H       1  ZINC000124554441    0.0600
     35 H35         3.2679    2.2518   57.8283 H       1  ZINC000124554441    0.0700
     36 H36         3.4815    0.5130   58.1432 H       1  ZINC000124554441    0.0700
     37 H37         3.3766    0.6503   55.7779 H       1  ZINC000124554441    0.0700
     38 H38         1.7292    0.1674   56.2483 H       1  ZINC000124554441    0.0700
     39 H39         2.1316    3.0919   56.2436 H       1  ZINC000124554441    0.0700
     40 H40         2.3708    2.3462   54.6452 H       1  ZINC000124554441    0.0700
     41 H41         0.0420    1.2164   55.5533 H       1  ZINC000124554441    0.4000
     42 H42        -2.0429    2.1822   57.0173 H       1  ZINC000124554441    0.0800
     43 H43        -2.2382    3.9500   56.9556 H       1  ZINC000124554441    0.0800
     44 H44        -4.1637    1.9164   55.7408 H       1  ZINC000124554441    0.0700
     45 H45        -4.4233    2.8000   57.2648 H       1  ZINC000124554441    0.0900
     46 H46        -5.5820    3.8623   55.2947 H       1  ZINC000124554441    0.1000
     47 H47        -4.3985    4.9426   56.0754 H       1  ZINC000124554441    0.0800
     48 H48        -3.7119    6.4509   51.8006 H       1  ZINC000124554441    0.1500
     49 H49        -2.4686    6.6518   49.6912 H       1  ZINC000124554441    0.1500
     50 H50        -3.5428    2.1763   51.4973 H       1  ZINC000124554441    0.1500
     51 H51        -2.0227    5.1577   54.7365 H       1  ZINC000124554441    0.0800
     52 H52        -1.9373    4.1928   53.2402 H       1  ZINC000124554441    0.1000
@<TRIPOS>BOND
     1     1     2    1
     2     1    28    1
     3     1    29    1
     4     1    30    1
     5     2     3    1
     6     2    31    1
     7     2    32    1
     8     3     4    1
     9     3    33    1
    10     3    34    1
    11     4     5    1
    12     4    35    1
    13     4    36    1
    14     5     6    1
    15     5    37    1
    16     5    38    1
    17     6     7    1
    18     6    39    1
    19     6    40    1
    20     7     8   am
    21     7    41    1
    22     8     9    2
    23     8    10    1
    24    10    11    1
    25    10    27    1
    26    10    12    1
    27    12    13    1
    28    12    42    1
    29    12    43    1
    30    13    14    1
    31    13    44    1
    32    13    45    1
    33    14    15    1
    34    14    46    1
    35    14    47    1
    36    15    16   am
    37    15    27    1
    38    16    17    2
    39    16    18    1
    40    18    26   ar
    41    18    19   ar
    42    19    20   ar
    43    19    48    1
    44    20    21   ar
    45    20    49    1
    46    21    22    1
    47    21    24   ar
    48    22    23    3
    49    24    25    1
    50    24    26   ar
    51    26    50    1
    52    27    51    1
    53    27    52    1
@<TRIPOS>SUBSTRUCTURE
     1 ZINC000124554441        1 TEMP              0 ****  ****    0 ROOT


##########                                Name:    ZINC000854500114
##########                DOCK_Rotatable_Bonds:                   7
##########                         Heavy_Atoms:                  24
##########                    Molecular_Weight:             399.288
##########                DOCK_Rotatable_Bonds:                   7
##########                       Formal_Charge:          -0.0399992
##########                     HBond_Acceptors:                   7
##########                        HBond_Donors:                   2
##########                         Heavy_Atoms:                  24
##########                          Grid_Score:          -29.507982
##########                     Grid_vdw_energy:          -29.962614
##########                      Grid_es_energy:            0.454631
##########           Internal_energy_repulsive:           75.622284

@<TRIPOS>MOLECULE
ZINC000854500114
 47 49 1 0 0
SMALL
USER_CHARGES


@<TRIPOS>ATOM
      1 O1         -3.8834    2.6678   51.9100 O.2     1  ZINC000854500114   -0.5800
      2 C2         -3.3262    3.7401   51.7826 C.2     1  ZINC000854500114    0.6600
      3 N3         -2.9605    4.4433   52.8728 N.am    1  ZINC000854500114   -0.7100
      4 C4         -3.2401    3.9175   54.2114 C.3     1  ZINC000854500114    0.1600
      5 C5         -2.0375    3.0948   54.7177 C.3     1  ZINC000854500114   -0.1400
      6 C6         -1.2261    4.0969   55.5759 C.3     1  ZINC000854500114   -0.1300
      7 C7         -2.3338    4.9193   56.2799 C.3     1  ZINC000854500114   -0.1300
      8 C8         -3.4285    5.0776   55.2045 C.3     1  ZINC000854500114   -0.1300
      9 O9         -3.0692    4.2233   50.5526 O.3     1  ZINC000854500114   -0.3600
     10 C10        -2.7509    3.2559   49.5176 C.3     1  ZINC000854500114    0.1000
     11 C11        -1.3143    2.7635   49.7041 C.3     1  ZINC000854500114    0.1500
     12 H12        -1.2431    2.1847   50.6249 H       1  ZINC000854500114    0.0900
     13 C13        -0.3655    3.9641   49.7775 C.3     1  ZINC000854500114   -0.1300
     14 C14         1.0803    3.4643   49.8238 C.3     1  ZINC000854500114   -0.1200
     15 C15         1.3919    2.6798   48.5473 C.3     1  ZINC000854500114   -0.1400
     16 C16         0.4629    1.4647   48.4600 C.3     1  ZINC000854500114    0.0900
     17 N17        -0.9299    1.9223   48.5625 N.am    1  ZINC000854500114   -0.6100
     18 C18        -1.8356    1.5811   47.6245 C.2     1  ZINC000854500114    0.5900
     19 O19        -2.9853    1.9662   47.7207 O.2     1  ZINC000854500114   -0.4900
     20 C20        -1.4334    0.7426   46.4841 C.2     1  ZINC000854500114   -0.0300
     21 C21        -0.9277    1.1771   45.2712 C.2     1  ZINC000854500114   -0.1200
     22 C22        -0.7012    0.0159   44.5275 C.2     1  ZINC000854500114    0.0200
     23 Br23       -0.0091   -0.0633   42.7694 Br      1  ZINC000854500114    0.0400
     24 N24        -1.0528   -1.0074   45.2643 N.2     1  ZINC000854500114   -0.2400
     25 N25        -1.4790   -0.6208   46.4126 N.pl3   1  ZINC000854500114   -0.3700
     26 H26        -2.5122    5.2974   52.7712 H       1  ZINC000854500114    0.4000
     27 H27        -4.1355    3.2963   54.1886 H       1  ZINC000854500114    0.0900
     28 H28        -2.3776    2.2580   55.3278 H       1  ZINC000854500114    0.0800
     29 H29        -1.4389    2.7384   53.8794 H       1  ZINC000854500114    0.0700
     30 H30        -0.6120    3.5707   56.3069 H       1  ZINC000854500114    0.0700
     31 H31        -0.6117    4.7379   54.9437 H       1  ZINC000854500114    0.0700
     32 H32        -2.7217    4.3771   57.1422 H       1  ZINC000854500114    0.0700
     33 H33        -1.9515    5.8945   56.5815 H       1  ZINC000854500114    0.0700
     34 H34        -3.3120    6.0318   54.6907 H       1  ZINC000854500114    0.0700
     35 H35        -4.4150    5.0189   55.6645 H       1  ZINC000854500114    0.0800
     36 H36        -3.4364    2.4113   49.5866 H       1  ZINC000854500114    0.1000
     37 H37        -2.8499    3.7252   48.5388 H       1  ZINC000854500114    0.0700
     38 H38        -0.5051    4.5924   48.8979 H       1  ZINC000854500114    0.0800
     39 H39        -0.5795    4.5425   50.6762 H       1  ZINC000854500114    0.0900
     40 H40         1.7565    4.3157   49.9009 H       1  ZINC000854500114    0.0800
     41 H41         1.2129    2.8161   50.6900 H       1  ZINC000854500114    0.0700
     42 H42         1.2356    3.3203   47.6794 H       1  ZINC000854500114    0.0700
     43 H43         2.4287    2.3442   48.5705 H       1  ZINC000854500114    0.0800
     44 H44         0.6122    0.9585   47.5063 H       1  ZINC000854500114    0.0800
     45 H45         0.6810    0.7786   49.2783 H       1  ZINC000854500114    0.0800
     46 H46        -0.7468    2.1967   44.9648 H       1  ZINC000854500114    0.1700
     47 H47        -1.7916   -1.2072   47.1192 H       1  ZINC000854500114    0.4500
@<TRIPOS>BOND
     1     1     2    2
     2     2     3   am
     3     2     9    1
     4     3     4    1
     5     3    26    1
     6     4     8    1
     7     4     5    1
     8     4    27    1
     9     5     6    1
    10     5    28    1
    11     5    29    1
    12     6     7    1
    13     6    30    1
    14     6    31    1
    15     7     8    1
    16     7    32    1
    17     7    33    1
    18     8    34    1
    19     8    35    1
    20     9    10    1
    21    10    11    1
    22    10    36    1
    23    10    37    1
    24    11    12    1
    25    11    17    1
    26    11    13    1
    27    13    14    1
    28    13    38    1
    29    13    39    1
    30    14    15    1
    31    14    40    1
    32    14    41    1
    33    15    16    1
    34    15    42    1
    35    15    43    1
    36    16    17    1
    37    16    44    1
    38    16    45    1
    39    17    18   am
    40    18    19    2
    41    18    20    1
    42    20    25    1
    43    20    21    2
    44    21    22    1
    45    21    46    1
    46    22    23    1
    47    22    24    2
    48    24    25    1
    49    25    47    1
@<TRIPOS>SUBSTRUCTURE
     1 ZINC000854500114        1 TEMP              0 ****  ****    0 ROOT


##########                                Name:    ZINC000077537368
##########                DOCK_Rotatable_Bonds:                   5
##########                         Heavy_Atoms:                  27
##########                    Molecular_Weight:             365.478
##########                DOCK_Rotatable_Bonds:                   5
##########                       Formal_Charge:          -0.0400007
##########                     HBond_Acceptors:                   6
##########                        HBond_Donors:                   0
##########                         Heavy_Atoms:                  27
##########                          Grid_Score:          -29.504639
##########                     Grid_vdw_energy:          -29.984152
##########                      Grid_es_energy:            0.479513
##########           Internal_energy_repulsive:           18.879490

@<TRIPOS>MOLECULE
ZINC000077537368
 54 56 1 0 0
SMALL
USER_CHARGES


@<TRIPOS>ATOM
      1 C1          0.7238    3.3879   53.7100 C.3     1  ZINC000077537368    0.0800
      2 N2         -0.6994    3.7082   53.8448 N.pl3   1  ZINC000077537368   -0.2600
      3 N3         -1.4898    3.2105   54.7266 N.2     1  ZINC000077537368   -0.2700
      4 C4         -2.7000    3.6903   54.5934 C.2     1  ZINC000077537368    0.0400
      5 C5         -3.8922    3.3398   55.4460 C.3     1  ZINC000077537368    0.0200
      6 C6         -4.0026    4.3356   56.6024 C.3     1  ZINC000077537368   -0.1400
      7 C7         -5.1629    3.4022   54.5962 C.3     1  ZINC000077537368   -0.1400
      8 C8         -3.7215    1.9258   56.0050 C.3     1  ZINC000077537368   -0.1400
      9 C9         -2.6904    4.5853   53.5212 C.2     1  ZINC000077537368   -0.2000
     10 C10        -1.3869    4.5861   53.0559 C.2     1  ZINC000077537368   -0.0400
     11 C11        -0.8511    5.3689   51.9308 C.2     1  ZINC000077537368    0.5900
     12 O12         0.0476    6.1667   52.1185 O.2     1  ZINC000077537368   -0.5400
     13 N13        -1.3564    5.2019   50.6925 N.am    1  ZINC000077537368   -0.6000
     14 C14        -0.8315    5.9697   49.5531 C.3     1  ZINC000077537368    0.0800
     15 C15        -0.4909    4.9922   48.4232 C.3     1  ZINC000077537368    0.0400
     16 N16        -1.6670    4.1640   48.1251 N.3     1  ZINC000077537368   -0.5300
     17 C17        -1.4382    3.3335   46.9354 C.3     1  ZINC000077537368    0.0900
     18 C18        -0.8257    2.0203   47.3497 C.ar    1  ZINC000077537368   -0.0500
     19 C19         0.5393    1.9325   47.5583 C.ar    1  ZINC000077537368   -0.1200
     20 C20         1.1065    0.7335   47.9373 C.ar    1  ZINC000077537368   -0.0700
     21 C21         0.2998   -0.3929   48.1107 C.ar    1  ZINC000077537368   -0.0300
     22 C22         0.8818   -1.6406   48.5045 C.1     1  ZINC000077537368    0.2500
     23 N23         1.3435   -2.6305   48.8169 N.1     1  ZINC000077537368   -0.4100
     24 C24        -1.0770   -0.2970   47.8989 C.ar    1  ZINC000077537368   -0.0700
     25 C25        -1.6318    0.9095   47.5253 C.ar    1  ZINC000077537368   -0.1000
     26 C26        -2.0431    3.3375   49.2799 C.3     1  ZINC000077537368    0.0400
     27 C27        -2.4433    4.2427   50.4438 C.3     1  ZINC000077537368    0.1200
     28 H28         1.3158    4.1334   54.2409 H       1  ZINC000077537368    0.0800
     29 H29         0.9161    2.4022   54.1336 H       1  ZINC000077537368    0.1000
     30 H30         0.9983    3.3899   52.6552 H       1  ZINC000077537368    0.1100
     31 H31        -4.1241    5.3429   56.2040 H       1  ZINC000077537368    0.0600
     32 H32        -4.8649    4.0821   57.2190 H       1  ZINC000077537368    0.0600
     33 H33        -3.0973    4.2910   57.2078 H       1  ZINC000077537368    0.0600
     34 H34        -5.0843    2.6929   53.7723 H       1  ZINC000077537368    0.0600
     35 H35        -6.0253    3.1488   55.2128 H       1  ZINC000077537368    0.0600
     36 H36        -5.2845    4.4095   54.1978 H       1  ZINC000077537368    0.0600
     37 H37        -2.8162    1.8814   56.6105 H       1  ZINC000077537368    0.0600
     38 H38        -4.5838    1.6724   56.6217 H       1  ZINC000077537368    0.0600
     39 H39        -3.6429    1.2165   55.1812 H       1  ZINC000077537368    0.0600
     40 H40        -3.5225    5.1580   53.1388 H       1  ZINC000077537368    0.1700
     41 H41        -1.5859    6.6775   49.2099 H       1  ZINC000077537368    0.0800
     42 H42         0.0674    6.5065   49.8563 H       1  ZINC000077537368    0.1200
     43 H43        -0.2047    5.5514   47.5325 H       1  ZINC000077537368    0.0900
     44 H44         0.3356    4.3523   48.7326 H       1  ZINC000077537368    0.0400
     45 H45        -2.3876    3.1490   46.4329 H       1  ZINC000077537368    0.0900
     46 H46        -0.7617    3.8513   46.2554 H       1  ZINC000077537368    0.0500
     47 H47         1.1621    2.8045   47.4238 H       1  ZINC000077537368    0.1300
     48 H48         2.1723    0.6661   48.0992 H       1  ZINC000077537368    0.1300
     49 H49        -1.7067   -1.1643   48.0313 H       1  ZINC000077537368    0.1300
     50 H50        -2.6965    0.9852   47.3614 H       1  ZINC000077537368    0.1400
     51 H51        -2.8827    2.6968   49.0104 H       1  ZINC000077537368    0.1000
     52 H52        -1.1952    2.7207   49.5773 H       1  ZINC000077537368    0.0400
     53 H53        -2.6124    3.6392   51.3356 H       1  ZINC000077537368    0.1000
     54 H54        -3.3526    4.7869   50.1887 H       1  ZINC000077537368    0.0800
@<TRIPOS>BOND
     1     1     2    1
     2     1    28    1
     3     1    29    1
     4     1    30    1
     5     2    10    1
     6     2     3    1
     7     3     4    2
     8     4     5    1
     9     4     9    1
    10     5     6    1
    11     5     7    1
    12     5     8    1
    13     6    31    1
    14     6    32    1
    15     6    33    1
    16     7    34    1
    17     7    35    1
    18     7    36    1
    19     8    37    1
    20     8    38    1
    21     8    39    1
    22     9    10    2
    23     9    40    1
    24    10    11    1
    25    11    12    2
    26    11    13   am
    27    13    27    1
    28    13    14    1
    29    14    15    1
    30    14    41    1
    31    14    42    1
    32    15    16    1
    33    15    43    1
    34    15    44    1
    35    16    17    1
    36    16    26    1
    37    17    18    1
    38    17    45    1
    39    17    46    1
    40    18    25   ar
    41    18    19   ar
    42    19    20   ar
    43    19    47    1
    44    20    21   ar
    45    20    48    1
    46    21    22    1
    47    21    24   ar
    48    22    23    3
    49    24    25   ar
    50    24    49    1
    51    25    50    1
    52    26    27    1
    53    26    51    1
    54    26    52    1
    55    27    53    1
    56    27    54    1
@<TRIPOS>SUBSTRUCTURE
     1 ZINC000077537368        1 TEMP              0 ****  ****    0 ROOT


##########                                Name:    ZINC001074839487
##########                DOCK_Rotatable_Bonds:                   7
##########                         Heavy_Atoms:                  25
##########                    Molecular_Weight:             344.454
##########                DOCK_Rotatable_Bonds:                   7
##########                       Formal_Charge:          -0.0500005
##########                     HBond_Acceptors:                   5
##########                        HBond_Donors:                   1
##########                         Heavy_Atoms:                  25
##########                          Grid_Score:          -29.501068
##########                     Grid_vdw_energy:          -29.613909
##########                      Grid_es_energy:            0.112842
##########           Internal_energy_repulsive:           90.287453

@<TRIPOS>MOLECULE
ZINC001074839487
 53 55 1 0 0
SMALL
USER_CHARGES


@<TRIPOS>ATOM
      1 C1         -4.1343    2.9310   54.4700 C.3     1  ZINC001074839487   -0.1500
      2 C2         -3.9109    2.6541   55.9580 C.3     1  ZINC001074839487   -0.1300
      3 C3         -5.0957    3.1950   56.7610 C.3     1  ZINC001074839487   -0.1100
      4 C4         -6.2685    2.2174   56.6609 C.3     1  ZINC001074839487   -0.1400
      5 C5         -7.2493    2.4942   57.7710 C.2     1  ZINC001074839487    0.5100
      6 O6         -7.1961    3.5416   58.3801 O.2     1  ZINC001074839487   -0.5400
      7 N7         -8.1857    1.5779   58.0869 N.am    1  ZINC001074839487   -0.7300
      8 C8         -9.1403    1.8477   59.1648 C.3     1  ZINC001074839487    0.1400
      9 H9         -9.2208    2.9239   59.3177 H       1  ZINC001074839487    0.0900
     10 C10       -10.5111    1.2826   58.7854 C.3     1  ZINC001074839487   -0.1500
     11 C11       -10.3871   -0.2241   58.5380 C.3     1  ZINC001074839487    0.0700
     12 N12        -9.7834   -0.8497   59.7224 N.am    1  ZINC001074839487   -0.6000
     13 C13       -10.3885   -1.8867   60.3348 C.2     1  ZINC001074839487    0.5600
     14 O14        -9.8788   -2.3958   61.3138 O.2     1  ZINC001074839487   -0.5200
     15 C15       -11.6720   -2.4052   59.8157 C.ar    1  ZINC001074839487   -0.1300
     16 C16       -12.8790   -1.8852   60.2853 C.ar    1  ZINC001074839487   -0.1000
     17 C17       -14.0746   -2.3730   59.7973 C.ar    1  ZINC001074839487   -0.1000
     18 C18       -14.0777   -3.3739   58.8460 C.ar    1  ZINC001074839487   -0.1100
     19 C19       -15.1939   -4.1011   58.1321 C.3     1  ZINC001074839487    0.0900
     20 O20       -14.6041   -5.2965   57.5895 O.3     1  ZINC001074839487   -0.3600
     21 C21       -13.2244   -4.9585   57.3577 C.3     1  ZINC001074839487    0.0900
     22 C22       -12.8807   -3.8953   58.3750 C.ar    1  ZINC001074839487   -0.1400
     23 C23       -11.6816   -3.4135   58.8494 C.ar    1  ZINC001074839487   -0.0400
     24 C24        -8.5080   -0.3231   60.2268 C.3     1  ZINC001074839487    0.1500
     25 H25        -7.7214   -0.5078   59.4952 H       1  ZINC001074839487    0.0700
     26 C26        -8.1557   -1.0104   61.5476 C.3     1  ZINC001074839487   -0.1400
     27 C27        -8.6529    1.1848   60.4553 C.3     1  ZINC001074839487   -0.1400
     28 H28        -5.0501    2.4391   54.1423 H       1  ZINC001074839487    0.0500
     29 H29        -3.2902    2.5458   53.8980 H       1  ZINC001074839487    0.0500
     30 H30        -4.2218    4.0056   54.3095 H       1  ZINC001074839487    0.0500
     31 H31        -3.8234    1.5796   56.1185 H       1  ZINC001074839487    0.0600
     32 H32        -2.9951    3.1462   56.2857 H       1  ZINC001074839487    0.0600
     33 H33        -4.8053    3.3084   57.8055 H       1  ZINC001074839487    0.0700
     34 H34        -5.3947    4.1634   56.3597 H       1  ZINC001074839487    0.0700
     35 H35        -6.7643    2.3423   55.6983 H       1  ZINC001074839487    0.0900
     36 H36        -5.8985    1.1960   56.7492 H       1  ZINC001074839487    0.0900
     37 H37        -8.2275    0.7396   57.6005 H       1  ZINC001074839487    0.4000
     38 H38       -11.2157    1.4612   59.5975 H       1  ZINC001074839487    0.0800
     39 H39       -10.8680    1.7720   57.8792 H       1  ZINC001074839487    0.0800
     40 H40       -11.3760   -0.6484   58.3645 H       1  ZINC001074839487    0.1200
     41 H41        -9.7538   -0.4008   57.6685 H       1  ZINC001074839487    0.0700
     42 H42       -12.8776   -1.1020   61.0291 H       1  ZINC001074839487    0.1500
     43 H43       -15.0091   -1.9709   60.1599 H       1  ZINC001074839487    0.1400
     44 H44       -15.9849   -4.3588   58.8364 H       1  ZINC001074839487    0.1000
     45 H45       -15.5927   -3.4811   57.3291 H       1  ZINC001074839487    0.0800
     46 H46       -12.5934   -5.8353   57.5030 H       1  ZINC001074839487    0.1000
     47 H47       -13.0981   -4.5672   56.3482 H       1  ZINC001074839487    0.0800
     48 H48       -10.7509   -3.8168   58.4784 H       1  ZINC001074839487    0.1400
     49 H49        -7.9485   -2.0648   61.3645 H       1  ZINC001074839487    0.0800
     50 H50        -7.2743   -0.5366   61.9799 H       1  ZINC001074839487    0.0500
     51 H51        -8.9932   -0.9195   62.2392 H       1  ZINC001074839487    0.0700
     52 H52        -7.6875    1.6044   60.7376 H       1  ZINC001074839487    0.0900
     53 H53        -9.3751    1.3643   61.2517 H       1  ZINC001074839487    0.0900
@<TRIPOS>BOND
     1     1     2    1
     2     1    28    1
     3     1    29    1
     4     1    30    1
     5     2     3    1
     6     2    31    1
     7     2    32    1
     8     3     4    1
     9     3    33    1
    10     3    34    1
    11     4     5    1
    12     4    35    1
    13     4    36    1
    14     5     6    2
    15     5     7   am
    16     7     8    1
    17     7    37    1
    18     8     9    1
    19     8    27    1
    20     8    10    1
    21    10    11    1
    22    10    38    1
    23    10    39    1
    24    11    12    1
    25    11    40    1
    26    11    41    1
    27    12    13   am
    28    12    24    1
    29    13    14    2
    30    13    15    1
    31    15    23   ar
    32    15    16   ar
    33    16    17   ar
    34    16    42    1
    35    17    18   ar
    36    17    43    1
    37    18    22   ar
    38    18    19    1
    39    19    20    1
    40    19    44    1
    41    19    45    1
    42    20    21    1
    43    21    22    1
    44    21    46    1
    45    21    47    1
    46    22    23   ar
    47    23    48    1
    48    24    25    1
    49    24    26    1
    50    24    27    1
    51    26    49    1
    52    26    50    1
    53    26    51    1
    54    27    52    1
    55    27    53    1
@<TRIPOS>SUBSTRUCTURE
     1 ZINC001074839487        1 TEMP              0 ****  ****    0 ROOT


##########                                Name:    ZINC000537799672
##########                DOCK_Rotatable_Bonds:                   9
##########                         Heavy_Atoms:                  29
##########                    Molecular_Weight:             401.478
##########                DOCK_Rotatable_Bonds:                   9
##########                       Formal_Charge:        -4.47035e-07
##########                     HBond_Acceptors:                   6
##########                        HBond_Donors:                   1
##########                         Heavy_Atoms:                  29
##########                          Grid_Score:          -29.463909
##########                     Grid_vdw_energy:          -29.674995
##########                      Grid_es_energy:            0.211087
##########           Internal_energy_repulsive:           12.151511

@<TRIPOS>MOLECULE
ZINC000537799672
 57 59 1 0 0
SMALL
USER_CHARGES


@<TRIPOS>ATOM
      1 C1         -5.9112    4.6786   58.8149 C.3     1  ZINC000537799672    0.0300
      2 O2         -6.2607    3.2966   58.9161 O.3     1  ZINC000537799672   -0.3800
      3 C3         -7.1107    2.8335   57.8650 C.3     1  ZINC000537799672    0.1200
      4 H4         -8.0300    3.4191   57.8564 H       1  ZINC000537799672    0.0900
      5 C5         -6.4044    2.9879   56.5428 C.ar    1  ZINC000537799672   -0.1300
      6 C6         -5.0634    2.6696   56.4348 C.ar    1  ZINC000537799672   -0.0600
      7 C7         -4.4146    2.8109   55.2228 C.ar    1  ZINC000537799672   -0.1500
      8 C8         -5.1081    3.2711   54.1163 C.ar    1  ZINC000537799672    0.1000
      9 F9         -4.4750    3.4091   52.9309 F       1  ZINC000537799672   -0.1400
     10 C10        -6.4513    3.5891   54.2256 C.ar    1  ZINC000537799672   -0.1500
     11 C11        -7.0992    3.4425   55.4374 C.ar    1  ZINC000537799672   -0.0800
     12 C12        -7.4477    1.3587   58.0939 C.3     1  ZINC000537799672    0.1600
     13 H13        -6.5629    0.7504   57.9061 H       1  ZINC000537799672    0.1000
     14 C14        -8.5678    0.9377   57.1404 C.3     1  ZINC000537799672   -0.1600
     15 N15        -7.8872    1.1672   59.4782 N.am    1  ZINC000537799672   -0.7100
     16 C16        -7.8064   -0.0512   60.0484 C.2     1  ZINC000537799672    0.5600
     17 O17        -7.3677   -0.9910   59.4146 O.2     1  ZINC000537799672   -0.5400
     18 C18        -8.2515   -0.2448   61.4450 C.ar    1  ZINC000537799672   -0.1400
     19 C19        -7.3334   -0.1537   62.4921 C.ar    1  ZINC000537799672   -0.0800
     20 C20        -7.7554   -0.3350   63.7932 C.ar    1  ZINC000537799672   -0.1300
     21 C21        -9.0852   -0.6068   64.0609 C.ar    1  ZINC000537799672   -0.0900
     22 C22       -10.0005   -0.6989   63.0271 C.ar    1  ZINC000537799672   -0.1100
     23 C23        -9.5929   -0.5137   61.7224 C.ar    1  ZINC000537799672   -0.0300
     24 C24       -10.5912   -0.6139   60.5979 C.3     1  ZINC000537799672    0.1100
     25 O25       -11.4864   -1.6986   60.8510 O.3     1  ZINC000537799672   -0.3800
     26 C26       -12.7632   -1.5566   60.2250 C.3     1  ZINC000537799672    0.0900
     27 C27       -12.7811   -2.3458   58.9123 C.3     1  ZINC000537799672   -0.1800
     28 C28       -14.1760   -2.2526   58.2888 C.3     1  ZINC000537799672    0.0600
     29 O29       -15.1445   -2.7496   59.2146 O.3     1  ZINC000537799672   -0.3800
     30 C30       -15.2060   -2.0206   60.4422 C.3     1  ZINC000537799672    0.0600
     31 C31       -13.8523   -2.1045   61.1523 C.3     1  ZINC000537799672   -0.1500
     32 H32        -6.8188    5.2800   58.7650 H       1  ZINC000537799672    0.0500
     33 H33        -5.3289    4.9710   59.6885 H       1  ZINC000537799672    0.0900
     34 H34        -5.3194    4.8385   57.9136 H       1  ZINC000537799672    0.0400
     35 H35        -4.5226    2.3107   57.2980 H       1  ZINC000537799672    0.1300
     36 H36        -3.3668    2.5628   55.1389 H       1  ZINC000537799672    0.1400
     37 H37        -6.9932    3.9484   53.3632 H       1  ZINC000537799672    0.1400
     38 H38        -8.1469    3.6902   55.5228 H       1  ZINC000537799672    0.1300
     39 H39        -8.2778    1.1676   56.1152 H       1  ZINC000537799672    0.0700
     40 H40        -8.7434   -0.1338   57.2367 H       1  ZINC000537799672    0.0600
     41 H41        -9.4802    1.4792   57.3901 H       1  ZINC000537799672    0.0700
     42 H42        -8.2362    1.9175   59.9844 H       1  ZINC000537799672    0.4000
     43 H43        -6.2949    0.0578   62.2845 H       1  ZINC000537799672    0.1300
     44 H44        -7.0459   -0.2647   64.6045 H       1  ZINC000537799672    0.1300
     45 H45        -9.4102   -0.7482   65.0810 H       1  ZINC000537799672    0.1300
     46 H46       -11.0371   -0.9118   63.2427 H       1  ZINC000537799672    0.1400
     47 H47       -11.1566    0.3156   60.5301 H       1  ZINC000537799672    0.0800
     48 H48       -10.0650   -0.7883   59.6594 H       1  ZINC000537799672    0.0800
     49 H49       -12.9541   -0.5029   60.0211 H       1  ZINC000537799672    0.0600
     50 H50       -12.0461   -1.9265   58.2252 H       1  ZINC000537799672    0.0800
     51 H51       -12.5403   -3.3900   59.1119 H       1  ZINC000537799672    0.0800
     52 H52       -14.3997   -1.2123   58.0523 H       1  ZINC000537799672    0.0500
     53 H53       -14.2067   -2.8477   57.3761 H       1  ZINC000537799672    0.1000
     54 H54       -15.4430   -0.9772   60.2339 H       1  ZINC000537799672    0.0500
     55 H55       -15.9786   -2.4486   61.0809 H       1  ZINC000537799672    0.1000
     56 H56       -13.6332   -3.1439   61.3971 H       1  ZINC000537799672    0.0800
     57 H57       -13.8835   -1.5126   62.0671 H       1  ZINC000537799672    0.0800
@<TRIPOS>BOND
     1     1     2    1
     2     1    32    1
     3     1    33    1
     4     1    34    1
     5     2     3    1
     6     3     4    1
     7     3     5    1
     8     3    12    1
     9     5    11   ar
    10     5     6   ar
    11     6     7   ar
    12     6    35    1
    13     7     8   ar
    14     7    36    1
    15     8     9    1
    16     8    10   ar
    17    10    11   ar
    18    10    37    1
    19    11    38    1
    20    12    13    1
    21    12    14    1
    22    12    15    1
    23    14    39    1
    24    14    40    1
    25    14    41    1
    26    15    16   am
    27    15    42    1
    28    16    17    2
    29    16    18    1
    30    18    23   ar
    31    18    19   ar
    32    19    20   ar
    33    19    43    1
    34    20    21   ar
    35    20    44    1
    36    21    22   ar
    37    21    45    1
    38    22    23   ar
    39    22    46    1
    40    23    24    1
    41    24    25    1
    42    24    47    1
    43    24    48    1
    44    25    26    1
    45    26    31    1
    46    26    27    1
    47    26    49    1
    48    27    28    1
    49    27    50    1
    50    27    51    1
    51    28    29    1
    52    28    52    1
    53    28    53    1
    54    29    30    1
    55    30    31    1
    56    30    54    1
    57    30    55    1
    58    31    56    1
    59    31    57    1
@<TRIPOS>SUBSTRUCTURE
     1 ZINC000537799672        1 TEMP              0 ****  ****    0 ROOT


##########                                Name:    ZINC001341052241
##########                DOCK_Rotatable_Bonds:                   7
##########                         Heavy_Atoms:                  24
##########                    Molecular_Weight:             336.478
##########                DOCK_Rotatable_Bonds:                   7
##########                       Formal_Charge:         5.96046e-08
##########                     HBond_Acceptors:                   6
##########                        HBond_Donors:                   0
##########                         Heavy_Atoms:                  24
##########                          Grid_Score:          -29.458935
##########                     Grid_vdw_energy:          -30.177618
##########                      Grid_es_energy:            0.718684
##########           Internal_energy_repulsive:            9.925543

@<TRIPOS>MOLECULE
ZINC001341052241
 56 58 1 0 0
SMALL
USER_CHARGES


@<TRIPOS>ATOM
      1 C1          0.1962    3.7108   50.6025 C.3     1  ZINC001341052241   -0.1700
      2 C2         -1.0219    4.1731   49.8002 C.3     1  ZINC001341052241    0.1100
      3 N3         -2.0728    3.1555   49.8781 N.pl3   1  ZINC001341052241   -0.4500
      4 C4         -3.0281    3.0279   50.8482 C.2     1  ZINC001341052241    0.1800
      5 C5         -3.2028    3.9172   52.0522 C.3     1  ZINC001341052241    0.1500
      6 O6         -3.8667    3.1909   53.0884 O.3     1  ZINC001341052241   -0.3700
      7 C7         -4.0297    3.9277   54.3020 C.3     1  ZINC001341052241    0.0900
      8 C8         -4.6884    3.0354   55.3558 C.3     1  ZINC001341052241   -0.1400
      9 C9         -4.8628    3.8243   56.6551 C.3     1  ZINC001341052241   -0.1200
     10 C10        -5.7476    5.0453   56.3955 C.3     1  ZINC001341052241   -0.1200
     11 C11        -5.0888    5.9375   55.3416 C.3     1  ZINC001341052241   -0.1200
     12 C12        -4.9144    5.1487   54.0423 C.3     1  ZINC001341052241   -0.1200
     13 N13        -3.7598    1.9954   50.5380 N.2     1  ZINC001341052241   -0.2600
     14 N14        -3.3387    1.4694   49.4435 N.2     1  ZINC001341052241   -0.3100
     15 C15        -2.3011    2.1380   48.9981 C.2     1  ZINC001341052241    0.3500
     16 N16        -1.5776    1.8658   47.8480 N.3     1  ZINC001341052241   -0.4600
     17 C17        -1.4911    0.4192   47.6107 C.3     1  ZINC001341052241    0.0700
     18 C18        -0.5675    0.1504   46.4204 C.3     1  ZINC001341052241   -0.1100
     19 C19        -1.1219    0.8576   45.1807 C.3     1  ZINC001341052241   -0.0900
     20 C20        -0.1707    0.6431   44.0016 C.3     1  ZINC001341052241    0.0700
     21 O21         1.0928    1.2435   44.2935 O.3     1  ZINC001341052241   -0.3900
     22 C22         2.0816    1.0378   43.2826 C.3     1  ZINC001341052241    0.0300
     23 C23        -1.2476    2.3558   45.4707 C.3     1  ZINC001341052241   -0.1100
     24 C24        -2.1516    2.5606   46.6884 C.3     1  ZINC001341052241    0.0700
     25 H25        -0.0919    3.5527   51.6417 H       1  ZINC001341052241    0.0600
     26 H26         0.5740    2.7779   50.1842 H       1  ZINC001341052241    0.0700
     27 H27         0.9743    4.4726   50.5530 H       1  ZINC001341052241    0.0800
     28 H28        -0.7361    4.3213   48.7588 H       1  ZINC001341052241    0.0900
     29 H29        -1.3934    5.1114   50.2120 H       1  ZINC001341052241    0.1000
     30 H30        -2.2255    4.2446   52.4069 H       1  ZINC001341052241    0.0900
     31 H31        -3.8000    4.7868   51.7779 H       1  ZINC001341052241    0.0700
     32 H32        -3.0543    4.2556   54.6617 H       1  ZINC001341052241    0.0600
     33 H33        -5.6637    2.7075   54.9961 H       1  ZINC001341052241    0.0700
     34 H34        -4.0581    2.1656   55.5408 H       1  ZINC001341052241    0.0700
     35 H35        -3.8876    4.1521   57.0149 H       1  ZINC001341052241    0.0600
     36 H36        -5.3322    3.1885   57.4059 H       1  ZINC001341052241    0.0700
     37 H37        -5.8719    5.6072   57.3212 H       1  ZINC001341052241    0.0600
     38 H38        -6.7228    4.7174   56.0357 H       1  ZINC001341052241    0.0600
     39 H39        -4.1136    6.2655   55.7014 H       1  ZINC001341052241    0.0600
     40 H40        -5.7191    6.8074   55.1567 H       1  ZINC001341052241    0.0700
     41 H41        -4.4450    5.7844   53.2915 H       1  ZINC001341052241    0.0700
     42 H42        -5.8897    4.8208   53.6826 H       1  ZINC001341052241    0.0700
     43 H43        -2.4848    0.0263   47.3953 H       1  ZINC001341052241    0.0600
     44 H44        -1.0915   -0.0711   48.4984 H       1  ZINC001341052241    0.0800
     45 H45        -0.5158   -0.9223   46.2349 H       1  ZINC001341052241    0.0800
     46 H46         0.4301    0.5308   46.6407 H       1  ZINC001341052241    0.0800
     47 H47        -2.1026    0.4492   44.9365 H       1  ZINC001341052241    0.0800
     48 H48        -0.5923    1.1010   43.1067 H       1  ZINC001341052241    0.0500
     49 H49        -0.0351   -0.4253   43.8336 H       1  ZINC001341052241    0.0500
     50 H50         2.2548   -0.0309   43.1559 H       1  ZINC001341052241    0.0400
     51 H51         3.0110    1.5240   43.5791 H       1  ZINC001341052241    0.0900
     52 H52         1.7330    1.4634   42.3416 H       1  ZINC001341052241    0.0400
     53 H53        -0.2608    2.7707   45.6759 H       1  ZINC001341052241    0.0700
     54 H54        -1.6818    2.8585   44.6064 H       1  ZINC001341052241    0.0800
     55 H55        -3.1421    2.1577   46.4774 H       1  ZINC001341052241    0.0600
     56 H56        -2.2316    3.6256   46.9063 H       1  ZINC001341052241    0.0800
@<TRIPOS>BOND
     1     1     2    1
     2     1    25    1
     3     1    26    1
     4     1    27    1
     5     2     3    1
     6     2    28    1
     7     2    29    1
     8     3    15    1
     9     3     4    1
    10     4     5    1
    11     4    13    2
    12     5     6    1
    13     5    30    1
    14     5    31    1
    15     6     7    1
    16     7    12    1
    17     7     8    1
    18     7    32    1
    19     8     9    1
    20     8    33    1
    21     8    34    1
    22     9    10    1
    23     9    35    1
    24     9    36    1
    25    10    11    1
    26    10    37    1
    27    10    38    1
    28    11    12    1
    29    11    39    1
    30    11    40    1
    31    12    41    1
    32    12    42    1
    33    13    14    1
    34    14    15    2
    35    15    16    1
    36    16    24    1
    37    16    17    1
    38    17    18    1
    39    17    43    1
    40    17    44    1
    41    18    19    1
    42    18    45    1
    43    18    46    1
    44    19    20    1
    45    19    23    1
    46    19    47    1
    47    20    21    1
    48    20    48    1
    49    20    49    1
    50    21    22    1
    51    22    50    1
    52    22    51    1
    53    22    52    1
    54    23    24    1
    55    23    53    1
    56    23    54    1
    57    24    55    1
    58    24    56    1
@<TRIPOS>SUBSTRUCTURE
     1 ZINC001341052241        1 TEMP              0 ****  ****    0 ROOT


##########                                Name:    ZINC000462219577
##########                DOCK_Rotatable_Bonds:                   8
##########                         Heavy_Atoms:                  31
##########                    Molecular_Weight:             418.539
##########                DOCK_Rotatable_Bonds:                   8
##########                       Formal_Charge:         -0.00999914
##########                     HBond_Acceptors:                   6
##########                        HBond_Donors:                   2
##########                         Heavy_Atoms:                  31
##########                          Grid_Score:          -29.455215
##########                     Grid_vdw_energy:          -28.606567
##########                      Grid_es_energy:           -0.848648
##########           Internal_energy_repulsive:          196.797119

@<TRIPOS>MOLECULE
ZINC000462219577
 61 64 1 0 0
SMALL
USER_CHARGES


@<TRIPOS>ATOM
      1 C1         -7.8710    2.9879   59.1029 C.3     1  ZINC000462219577   -0.0700
      2 C2         -6.6652    3.2990   58.2540 C.2     1  ZINC000462219577    0.0800
      3 N3         -5.9134    4.3658   58.3512 N.2     1  ZINC000462219577   -0.2900
      4 N4         -4.9007    4.2772   57.3873 N.pl3   1  ZINC000462219577   -0.3200
      5 C5         -3.8884    5.2211   57.1652 C.ar    1  ZINC000462219577    0.1500
      6 C6         -3.8247    6.3691   57.9434 C.ar    1  ZINC000462219577   -0.1100
      7 C7         -2.8261    7.2972   57.7221 C.ar    1  ZINC000462219577   -0.1000
      8 C8         -1.8906    7.0842   56.7262 C.ar    1  ZINC000462219577   -0.1200
      9 C9         -1.9517    5.9420   55.9492 C.ar    1  ZINC000462219577   -0.1000
     10 C10        -2.9440    5.0071   56.1702 C.ar    1  ZINC000462219577   -0.1300
     11 C11        -5.0725    3.1198   56.7094 C.2     1  ZINC000462219577    0.0900
     12 C12        -4.2110    2.6145   55.5810 C.3     1  ZINC000462219577   -0.0800
     13 C13        -4.5463    3.3818   54.3004 C.3     1  ZINC000462219577    0.1700
     14 H14        -4.3614    4.4448   54.4548 H       1  ZINC000462219577    0.1000
     15 C15        -6.0195    3.1663   53.9478 C.3     1  ZINC000462219577   -0.1600
     16 N16        -3.7055    2.8939   53.2045 N.am    1  ZINC000462219577   -0.7400
     17 C17        -3.3041    3.7398   52.2350 C.2     1  ZINC000462219577    0.7100
     18 O18        -3.6387    4.9081   52.2709 O.2     1  ZINC000462219577   -0.5800
     19 N19        -2.5318    3.2905   51.2259 N.am    1  ZINC000462219577   -0.7400
     20 C20        -2.0942    4.2103   50.1731 C.3     1  ZINC000462219577    0.1600
     21 H21        -2.8175    5.0195   50.0720 H       1  ZINC000462219577    0.1000
     22 C22        -0.7239    4.7905   50.5366 C.3     1  ZINC000462219577   -0.1700
     23 C23         0.3013    3.6553   50.6014 C.3     1  ZINC000462219577    0.0700
     24 O24         0.3349    2.9736   49.3460 O.3     1  ZINC000462219577   -0.3700
     25 C25        -0.9066    2.3701   48.9763 C.3     1  ZINC000462219577    0.1400
     26 H26        -1.2044    1.6531   49.7414 H       1  ZINC000462219577    0.0600
     27 C27        -0.7468    1.6596   47.6568 C.ar    1  ZINC000462219577   -0.0900
     28 C28        -0.2316    2.3348   46.5662 C.ar    1  ZINC000462219577   -0.0900
     29 C29        -0.0851    1.6830   45.3559 C.ar    1  ZINC000462219577   -0.1200
     30 C30        -0.4535    0.3561   45.2365 C.ar    1  ZINC000462219577   -0.1200
     31 C31        -0.9679   -0.3194   46.3274 C.ar    1  ZINC000462219577   -0.1200
     32 C32        -1.1104    0.3311   47.5388 C.ar    1  ZINC000462219577   -0.1100
     33 C33        -1.9824    3.4541   48.8457 C.3     1  ZINC000462219577   -0.1500
     34 C34        -6.1532    2.4940   57.2305 C.2     1  ZINC000462219577   -0.2600
     35 H35        -7.5592    2.4320   59.9871 H       1  ZINC000462219577    0.0800
     36 H36        -8.3499    3.9182   59.4086 H       1  ZINC000462219577    0.0700
     37 H37        -8.5760    2.3887   58.5268 H       1  ZINC000462219577    0.0800
     38 H38        -4.5555    6.5364   58.7208 H       1  ZINC000462219577    0.1300
     39 H39        -2.7761    8.1904   58.3271 H       1  ZINC000462219577    0.1300
     40 H40        -1.1109    7.8116   56.5548 H       1  ZINC000462219577    0.1300
     41 H41        -1.2201    5.7787   55.1718 H       1  ZINC000462219577    0.1300
     42 H42        -2.9912    4.1151   55.5630 H       1  ZINC000462219577    0.1300
     43 H43        -3.1606    2.7649   55.8302 H       1  ZINC000462219577    0.0900
     44 H44        -4.3994    1.5519   55.4277 H       1  ZINC000462219577    0.1100
     45 H45        -6.2045    2.1033   53.7935 H       1  ZINC000462219577    0.0600
     46 H46        -6.6451    3.5294   54.7632 H       1  ZINC000462219577    0.0700
     47 H47        -6.2584    3.7129   53.0355 H       1  ZINC000462219577    0.0700
     48 H48        -3.4376    1.9620   53.1766 H       1  ZINC000462219577    0.3900
     49 H49        -2.2659    2.3581   51.1968 H       1  ZINC000462219577    0.3900
     50 H50        -0.4209    5.5121   49.7779 H       1  ZINC000462219577    0.0800
     51 H51        -0.7829    5.2837   51.5068 H       1  ZINC000462219577    0.0800
     52 H52         1.2869    4.0675   50.8177 H       1  ZINC000462219577    0.1000
     53 H53         0.0193    2.9552   51.3878 H       1  ZINC000462219577    0.0500
     54 H54         0.0562    3.3715   46.6595 H       1  ZINC000462219577    0.1300
     55 H55         0.3169    2.2107   44.5037 H       1  ZINC000462219577    0.1200
     56 H56        -0.3396   -0.1529   44.2908 H       1  ZINC000462219577    0.1200
     57 H57        -1.2560   -1.3560   46.2339 H       1  ZINC000462219577    0.1200
     58 H58        -1.5124   -0.1965   48.3910 H       1  ZINC000462219577    0.1200
     59 H59        -2.9396    2.9904   48.6070 H       1  ZINC000462219577    0.0800
     60 H60        -1.7052    4.1487   48.0528 H       1  ZINC000462219577    0.0900
     61 H61        -6.5541    1.5443   56.9083 H       1  ZINC000462219577    0.1500
@<TRIPOS>BOND
     1     1     2    1
     2     1    35    1
     3     1    36    1
     4     1    37    1
     5     2    34    1
     6     2     3    2
     7     3     4    1
     8     4     5    1
     9     4    11    1
    10     5    10   ar
    11     5     6   ar
    12     6     7   ar
    13     6    38    1
    14     7     8   ar
    15     7    39    1
    16     8     9   ar
    17     8    40    1
    18     9    10   ar
    19     9    41    1
    20    10    42    1
    21    11    12    1
    22    11    34    2
    23    12    13    1
    24    12    43    1
    25    12    44    1
    26    13    14    1
    27    13    15    1
    28    13    16    1
    29    15    45    1
    30    15    46    1
    31    15    47    1
    32    16    17   am
    33    16    48    1
    34    17    18    2
    35    17    19   am
    36    19    20    1
    37    19    49    1
    38    20    21    1
    39    20    33    1
    40    20    22    1
    41    22    23    1
    42    22    50    1
    43    22    51    1
    44    23    24    1
    45    23    52    1
    46    23    53    1
    47    24    25    1
    48    25    26    1
    49    25    27    1
    50    25    33    1
    51    27    32   ar
    52    27    28   ar
    53    28    29   ar
    54    28    54    1
    55    29    30   ar
    56    29    55    1
    57    30    31   ar
    58    30    56    1
    59    31    32   ar
    60    31    57    1
    61    32    58    1
    62    33    59    1
    63    33    60    1
    64    34    61    1
@<TRIPOS>SUBSTRUCTURE
     1 ZINC000462219577        1 TEMP              0 ****  ****    0 ROOT


##########                                Name:    ZINC000460163972
##########                DOCK_Rotatable_Bonds:                   7
##########                         Heavy_Atoms:                  28
##########                    Molecular_Weight:             408.469
##########                DOCK_Rotatable_Bonds:                   7
##########                       Formal_Charge:          -0.0100001
##########                     HBond_Acceptors:                   8
##########                        HBond_Donors:                   2
##########                         Heavy_Atoms:                  28
##########                          Grid_Score:          -29.455168
##########                     Grid_vdw_energy:          -29.335238
##########                      Grid_es_energy:           -0.119929
##########           Internal_energy_repulsive:           48.230495

@<TRIPOS>MOLECULE
ZINC000460163972
 50 52 1 0 0
SMALL
USER_CHARGES


@<TRIPOS>ATOM
      1 C1        -14.5850   -3.9243   57.3972 C.3     1  ZINC000460163972   -0.1400
      2 C2        -13.5086   -3.1146   58.0730 C.ar    1  ZINC000460163972    0.0100
      3 C3        -12.2686   -2.9809   57.4761 C.ar    1  ZINC000460163972   -0.1300
      4 C4        -11.2798   -2.2394   58.0930 C.ar    1  ZINC000460163972   -0.0600
      5 C5        -11.5323   -1.6277   59.3135 C.ar    1  ZINC000460163972    0.1100
      6 N6        -10.5330   -0.8755   59.9408 N.am    1  ZINC000460163972   -0.6700
      7 C7         -9.5148   -1.4974   60.5677 C.2     1  ZINC000460163972    0.5200
      8 O8         -9.4647   -2.7091   60.5880 O.2     1  ZINC000460163972   -0.5100
      9 C9         -8.4385   -0.6873   61.2433 C.3     1  ZINC000460163972   -0.0700
     10 H10        -7.5244   -1.2778   61.3055 H       1  ZINC000460163972    0.1200
     11 C11        -8.1713    0.5825   60.4327 C.3     1  ZINC000460163972   -0.1500
     12 C12        -8.8893   -0.3117   62.6313 C.ar    1  ZINC000460163972   -0.0600
     13 C13       -10.0125    0.4751   62.8031 C.ar    1  ZINC000460163972   -0.0700
     14 C14       -10.4280    0.8212   64.0756 C.ar    1  ZINC000460163972   -0.1200
     15 C15        -9.7193    0.3794   65.1788 C.ar    1  ZINC000460163972    0.0700
     16 F16       -10.1249    0.7166   66.4226 F       1  ZINC000460163972   -0.1300
     17 C17        -8.5925   -0.4106   65.0065 C.ar    1  ZINC000460163972    0.0700
     18 F18        -7.8989   -0.8432   66.0822 F       1  ZINC000460163972   -0.1300
     19 C19        -8.1820   -0.7592   63.7319 C.ar    1  ZINC000460163972   -0.1200
     20 C20       -12.7792   -1.7635   59.9104 C.ar    1  ZINC000460163972    0.0000
     21 C21       -13.0576   -1.1008   61.2349 C.3     1  ZINC000460163972   -0.1500
     22 C22       -13.7649   -2.5022   59.2863 C.ar    1  ZINC000460163972   -0.6700
     23 S23       -15.3471   -2.6746   60.0422 S.o2    1  ZINC000460163972    2.7000
     24 O24       -16.2787   -2.8601   58.9854 O.2     1  ZINC000460163972   -0.9500
     25 O25       -15.1844   -3.6019   61.1066 O.2     1  ZINC000460163972   -0.9500
     26 N26       -15.7172   -1.2199   60.7418 N.am    1  ZINC000460163972   -1.0900
     27 C27       -15.8095   -0.0129   59.9168 C.3     1  ZINC000460163972    0.0800
     28 C28       -17.0568    0.1543   59.0466 C.3     1  ZINC000460163972   -0.1800
     29 C29       -16.8726    1.0209   60.2939 C.3     1  ZINC000460163972   -0.1900
     30 H30       -15.2306   -3.2614   56.8211 H       1  ZINC000460163972    0.1000
     31 H31       -14.1260   -4.6543   56.7303 H       1  ZINC000460163972    0.0800
     32 H32       -15.1770   -4.4429   58.1513 H       1  ZINC000460163972    0.0700
     33 H33       -12.0728   -3.4570   56.5267 H       1  ZINC000460163972    0.1400
     34 H34       -10.3112   -2.1359   57.6264 H       1  ZINC000460163972    0.1600
     35 H35       -10.5730    0.0935   59.9246 H       1  ZINC000460163972    0.4100
     36 H36        -7.3928    1.1683   60.9213 H       1  ZINC000460163972    0.0800
     37 H37        -7.8453    0.3107   59.4286 H       1  ZINC000460163972    0.0700
     38 H38        -9.0854    1.1729   60.3705 H       1  ZINC000460163972    0.0700
     39 H39       -10.5660    0.8204   61.9424 H       1  ZINC000460163972    0.1400
     40 H40       -11.3054    1.4366   64.2084 H       1  ZINC000460163972    0.1500
     41 H41        -7.3049   -1.3745   63.5963 H       1  ZINC000460163972    0.1500
     42 H42       -13.5615   -0.1490   61.0661 H       1  ZINC000460163972    0.1000
     43 H43       -13.6951   -1.7475   61.8378 H       1  ZINC000460163972    0.1000
     44 H44       -12.1178   -0.9265   61.7587 H       1  ZINC000460163972    0.0700
     45 H45       -15.8728   -1.1672   61.6978 H       1  ZINC000460163972    0.4200
     46 H46       -14.8649    0.3585   59.5196 H       1  ZINC000460163972    0.1300
     47 H47       -16.9329    0.6357   58.0765 H       1  ZINC000460163972    0.1100
     48 H48       -17.8086   -0.6338   59.0879 H       1  ZINC000460163972    0.1000
     49 H49       -17.5031    0.8029   61.1559 H       1  ZINC000460163972    0.1000
     50 H50       -16.6273    2.0725   60.1445 H       1  ZINC000460163972    0.1000
@<TRIPOS>BOND
     1     1     2    1
     2     1    30    1
     3     1    31    1
     4     1    32    1
     5     2    22   ar
     6     2     3   ar
     7     3     4   ar
     8     3    33    1
     9     4     5   ar
    10     4    34    1
    11     5     6    1
    12     5    20   ar
    13     6     7   am
    14     6    35    1
    15     7     8    2
    16     7     9    1
    17     9    10    1
    18     9    11    1
    19     9    12    1
    20    11    36    1
    21    11    37    1
    22    11    38    1
    23    12    19   ar
    24    12    13   ar
    25    13    14   ar
    26    13    39    1
    27    14    15   ar
    28    14    40    1
    29    15    16    1
    30    15    17   ar
    31    17    18    1
    32    17    19   ar
    33    19    41    1
    34    20    21    1
    35    20    22   ar
    36    21    42    1
    37    21    43    1
    38    21    44    1
    39    22    23    1
    40    23    24    2
    41    23    25    2
    42    23    26   am
    43    26    27    1
    44    26    45    1
    45    27    29    1
    46    27    28    1
    47    27    46    1
    48    28    29    1
    49    28    47    1
    50    28    48    1
    51    29    49    1
    52    29    50    1
@<TRIPOS>SUBSTRUCTURE
     1 ZINC000460163972        1 TEMP              0 ****  ****    0 ROOT


##########                                Name:    ZINC000098105561
##########                DOCK_Rotatable_Bonds:                   5
##########                         Heavy_Atoms:                  25
##########                    Molecular_Weight:             368.336
##########                DOCK_Rotatable_Bonds:                   5
##########                       Formal_Charge:         2.98023e-08
##########                     HBond_Acceptors:                   9
##########                        HBond_Donors:                   0
##########                         Heavy_Atoms:                  25
##########                          Grid_Score:          -29.438421
##########                     Grid_vdw_energy:          -28.897282
##########                      Grid_es_energy:           -0.541139
##########           Internal_energy_repulsive:           13.168492

@<TRIPOS>MOLECULE
ZINC000098105561
 36 38 1 0 0
SMALL
USER_CHARGES


@<TRIPOS>ATOM
      1 C1         -2.3082    4.6964   50.6491 C.3     1  ZINC000098105561   -0.0800
      2 C2         -2.3018    3.5074   49.7233 C.2     1  ZINC000098105561    0.0900
      3 C3         -2.8758    2.3440   50.0389 C.2     1  ZINC000098105561   -0.2700
      4 S4         -2.6400    1.2351   48.6904 S.3     1  ZINC000098105561    0.1600
      5 C5         -1.7909    2.4447   47.8309 C.2     1  ZINC000098105561    0.2500
      6 N6         -1.2476    2.2863   46.5636 N.am    1  ZINC000098105561   -0.5200
      7 C7         -1.5897    3.2301   45.4967 C.3     1  ZINC000098105561    0.0500
      8 C8         -0.6433    4.4308   45.5551 C.3     1  ZINC000098105561    0.4400
      9 F9          0.6505    3.9908   45.8546 F       1  ZINC000098105561   -0.1700
     10 F10        -0.6394    5.0822   44.3170 F       1  ZINC000098105561   -0.1700
     11 F11        -1.0756    5.3175   46.5471 F       1  ZINC000098105561   -0.1700
     12 C12        -0.4051    1.2641   46.3144 C.2     1  ZINC000098105561    0.5800
     13 O13        -0.1213    0.4812   47.1994 O.2     1  ZINC000098105561   -0.4100
     14 C14         0.1747    1.0950   44.9621 C.2     1  ZINC000098105561    0.0800
     15 C15        -0.5351    0.4092   44.0324 C.2     1  ZINC000098105561   -0.2000
     16 C16         0.0567    0.2319   42.6955 C.2     1  ZINC000098105561    0.4200
     17 O17        -0.5967   -0.1683   41.7481 O.2     1  ZINC000098105561   -0.4300
     18 C18         1.4894    0.5684   42.5717 C.ar    1  ZINC000098105561   -0.2200
     19 C19         2.2271    0.2093   41.4457 C.ar    1  ZINC000098105561   -0.0300
     20 C20         3.5632    0.5392   41.3763 C.ar    1  ZINC000098105561   -0.1400
     21 C21         4.1689    1.2231   42.4208 C.ar    1  ZINC000098105561   -0.0500
     22 C22         3.4491    1.5856   43.5387 C.ar    1  ZINC000098105561   -0.1400
     23 C23         2.0982    1.2668   43.6293 C.ar    1  ZINC000098105561    0.1400
     24 O24         1.3761    1.6310   44.7075 O.3     1  ZINC000098105561   -0.2300
     25 N25        -1.7333    3.5334   48.5329 N.2     1  ZINC000098105561   -0.4600
     26 H26        -3.1939    5.3020   50.4566 H       1  ZINC000098105561    0.0800
     27 H27        -2.3215    4.3518   51.6831 H       1  ZINC000098105561    0.0800
     28 H28        -1.4141    5.2956   50.4772 H       1  ZINC000098105561    0.0800
     29 H29        -3.3936    2.1216   50.9601 H       1  ZINC000098105561    0.1900
     30 H30        -1.4914    2.7367   44.5297 H       1  ZINC000098105561    0.1700
     31 H31        -2.6169    3.5704   45.6281 H       1  ZINC000098105561    0.1400
     32 H32        -1.5083    0.0035   44.2660 H       1  ZINC000098105561    0.1800
     33 H33         1.7555   -0.3239   40.6335 H       1  ZINC000098105561    0.1400
     34 H34         4.1410    0.2642   40.5062 H       1  ZINC000098105561    0.1400
     35 H35         5.2175    1.4739   42.3571 H       1  ZINC000098105561    0.1400
     36 H36         3.9336    2.1176   44.3441 H       1  ZINC000098105561    0.1400
@<TRIPOS>BOND
     1     1     2    1
     2     1    26    1
     3     1    27    1
     4     1    28    1
     5     2    25    1
     6     2     3    2
     7     3     4    1
     8     3    29    1
     9     4     5    1
    10     5     6    1
    11     5    25    2
    12     6     7    1
    13     6    12   am
    14     7     8    1
    15     7    30    1
    16     7    31    1
    17     8     9    1
    18     8    10    1
    19     8    11    1
    20    12    13    2
    21    12    14    1
    22    14    24    1
    23    14    15    2
    24    15    16    1
    25    15    32    1
    26    16    17    2
    27    16    18    1
    28    18    23   ar
    29    18    19   ar
    30    19    20   ar
    31    19    33    1
    32    20    21   ar
    33    20    34    1
    34    21    22   ar
    35    21    35    1
    36    22    23   ar
    37    22    36    1
    38    23    24    1
@<TRIPOS>SUBSTRUCTURE
     1 ZINC000098105561        1 TEMP              0 ****  ****    0 ROOT


##########                                Name:    ZINC001077846158
##########                DOCK_Rotatable_Bonds:                   7
##########                         Heavy_Atoms:                  24
##########                    Molecular_Weight:             350.442
##########                DOCK_Rotatable_Bonds:                   7
##########                       Formal_Charge:          -0.0600002
##########                     HBond_Acceptors:                   8
##########                        HBond_Donors:                   2
##########                         Heavy_Atoms:                  24
##########                          Grid_Score:          -29.432737
##########                     Grid_vdw_energy:          -29.402733
##########                      Grid_es_energy:           -0.030004
##########           Internal_energy_repulsive:            6.614831

@<TRIPOS>MOLECULE
ZINC001077846158
 46 48 1 0 0
SMALL
USER_CHARGES


@<TRIPOS>ATOM
      1 C1          2.9000    0.2818   47.9086 C.3     1  ZINC001077846158   -0.0700
      2 C2          1.7194   -0.5999   48.2247 C.2     1  ZINC001077846158    0.0100
      3 C3          0.4283   -0.3079   47.9960 C.2     1  ZINC001077846158   -0.0500
      4 C4         -0.1074    0.9575   47.3774 C.3     1  ZINC001077846158    0.1300
      5 N5         -0.2182    1.9978   48.4087 N.3     1  ZINC001077846158   -0.5100
      6 C6         -0.2248    3.3525   47.7996 C.3     1  ZINC001077846158    0.0000
      7 C7         -0.8594    4.2346   48.9042 C.3     1  ZINC001077846158    0.1000
      8 H8         -0.1183    4.5023   49.6572 H       1  ZINC001077846158    0.0800
      9 O9         -1.4490    5.4069   48.3385 O.3     1  ZINC001077846158   -0.5600
     10 C10        -1.9416    3.3094   49.5063 C.3     1  ZINC001077846158    0.1400
     11 H11        -2.9136    3.5256   49.0631 H       1  ZINC001077846158    0.1100
     12 N12        -1.9990    3.4736   50.9610 N.am    1  ZINC001077846158   -0.7000
     13 C13        -3.1296    3.1707   51.6292 C.2     1  ZINC001077846158    0.6000
     14 O14        -4.1026    2.7621   51.0244 O.2     1  ZINC001077846158   -0.5300
     15 C15        -3.1868    3.3341   53.0916 C.2     1  ZINC001077846158    0.0100
     16 C16        -2.0872    3.3416   53.8782 C.2     1  ZINC001077846158   -0.2300
     17 S17        -2.5727    3.5541   55.5033 S.3     1  ZINC001077846158    0.2300
     18 C18        -4.2149    3.6207   55.0393 C.2     1  ZINC001077846158    0.0300
     19 C19        -5.3686    3.8080   55.9906 C.3     1  ZINC001077846158   -0.0200
     20 C20        -6.6563    3.3036   55.3362 C.3     1  ZINC001077846158   -0.1500
     21 C21        -5.1051    3.0177   57.2739 C.3     1  ZINC001077846158   -0.1500
     22 N22        -4.3296    3.4943   53.7642 N.2     1  ZINC001077846158   -0.4500
     23 C23        -1.4956    1.8805   49.1449 C.3     1  ZINC001077846158    0.0300
     24 O24        -0.2977   -1.3596   48.4234 O.3     1  ZINC001077846158   -0.2100
     25 C25         0.5535   -2.2751   48.9047 C.2     1  ZINC001077846158    0.1800
     26 N26         1.7688   -1.8231   48.7812 N.2     1  ZINC001077846158   -0.4900
     27 H27         3.2503    0.0715   46.8981 H       1  ZINC001077846158    0.0800
     28 H28         2.6017    1.3278   47.9794 H       1  ZINC001077846158    0.0700
     29 H29         3.7020    0.0838   48.6197 H       1  ZINC001077846158    0.0700
     30 H30         0.5708    1.2941   46.5933 H       1  ZINC001077846158    0.0600
     31 H31        -1.0909    0.7645   46.9490 H       1  ZINC001077846158    0.1100
     32 H32         0.7912    3.6811   47.5813 H       1  ZINC001077846158    0.0900
     33 H33        -0.8368    3.3658   46.8978 H       1  ZINC001077846158    0.0600
     34 H34        -1.9793    5.2381   47.5477 H       1  ZINC001077846158    0.3900
     35 H35        -1.2235    3.8005   51.4432 H       1  ZINC001077846158    0.4100
     36 H36        -1.0688    3.2314   53.5358 H       1  ZINC001077846158    0.1900
     37 H37        -5.4735    4.8662   56.2306 H       1  ZINC001077846158    0.1000
     38 H38        -6.8440    3.8666   54.4220 H       1  ZINC001077846158    0.0600
     39 H39        -6.5515    2.2455   55.0962 H       1  ZINC001077846158    0.0600
     40 H40        -7.4907    3.4391   56.0243 H       1  ZINC001077846158    0.0700
     41 H41        -4.1878    3.3771   57.7400 H       1  ZINC001077846158    0.0600
     42 H42        -5.9396    3.1532   57.9619 H       1  ZINC001077846158    0.0700
     43 H43        -5.0002    1.9596   57.0338 H       1  ZINC001077846158    0.0600
     44 H44        -2.2461    1.4058   48.5129 H       1  ZINC001077846158    0.0600
     45 H45        -1.3481    1.2965   50.0534 H       1  ZINC001077846158    0.0900
     46 H46         0.2779   -3.2322   49.3225 H       1  ZINC001077846158    0.2500
@<TRIPOS>BOND
     1     1     2    1
     2     1    27    1
     3     1    28    1
     4     1    29    1
     5     2    26    1
     6     2     3    2
     7     3     4    1
     8     3    24    1
     9     4     5    1
    10     4    30    1
    11     4    31    1
    12     5    23    1
    13     5     6    1
    14     6     7    1
    15     6    32    1
    16     6    33    1
    17     7     8    1
    18     7     9    1
    19     7    10    1
    20     9    34    1
    21    10    11    1
    22    10    12    1
    23    10    23    1
    24    12    13   am
    25    12    35    1
    26    13    14    2
    27    13    15    1
    28    15    22    1
    29    15    16    2
    30    16    17    1
    31    16    36    1
    32    17    18    1
    33    18    19    1
    34    18    22    2
    35    19    20    1
    36    19    21    1
    37    19    37    1
    38    20    38    1
    39    20    39    1
    40    20    40    1
    41    21    41    1
    42    21    42    1
    43    21    43    1
    44    23    44    1
    45    23    45    1
    46    24    25    1
    47    25    26    2
    48    25    46    1
@<TRIPOS>SUBSTRUCTURE
     1 ZINC001077846158        1 TEMP              0 ****  ****    0 ROOT


##########                                Name:    ZINC000081577146
##########                DOCK_Rotatable_Bonds:                   4
##########                         Heavy_Atoms:                  25
##########                    Molecular_Weight:             355.464
##########                DOCK_Rotatable_Bonds:                   4
##########                       Formal_Charge:                0.02
##########                     HBond_Acceptors:                   7
##########                        HBond_Donors:                   0
##########                         Heavy_Atoms:                  25
##########                          Grid_Score:          -29.431992
##########                     Grid_vdw_energy:          -28.992609
##########                      Grid_es_energy:           -0.439382
##########           Internal_energy_repulsive:           13.026831

@<TRIPOS>MOLECULE
ZINC000081577146
 46 49 1 0 0
SMALL
USER_CHARGES


@<TRIPOS>ATOM
      1 C1         -0.3941    0.3475   44.0890 C.3     1  ZINC000081577146   -0.0700
      2 C2         -0.7605    0.3305   45.5508 C.2     1  ZINC000081577146    0.2900
      3 N3         -0.8626   -0.7901   46.2043 N.2     1  ZINC000081577146   -0.4800
      4 S4         -1.2860   -0.3610   47.7933 S.3     1  ZINC000081577146    0.1900
      5 C5         -1.3010    1.3331   47.4787 C.2     1  ZINC000081577146    0.2700
      6 N6         -1.5818    2.3526   48.3703 N.3     1  ZINC000081577146   -0.4300
      7 C7         -1.4169    3.6676   47.7355 C.3     1  ZINC000081577146    0.0700
      8 C8         -1.8126    4.7634   48.7279 C.3     1  ZINC000081577146    0.0500
      9 N9         -0.9776    4.6548   49.9323 N.3     1  ZINC000081577146   -0.5200
     10 C10        -1.2759    5.7375   50.8792 C.3     1  ZINC000081577146    0.1900
     11 H11        -1.4679    6.6587   50.3291 H       1  ZINC000081577146    0.0700
     12 C12        -0.0817    5.9410   51.8138 C.3     1  ZINC000081577146   -0.1500
     13 C13        -2.4927    5.3742   51.6907 C.2     1  ZINC000081577146    0.1900
     14 N14        -3.7020    5.8124   51.4787 N.2     1  ZINC000081577146   -0.4500
     15 C15        -4.5243    5.2787   52.3944 C.2     1  ZINC000081577146   -0.0200
     16 C16        -3.7770    4.4798   53.1985 C.2     1  ZINC000081577146    0.0000
     17 C17        -4.2613    3.6866   54.3481 C.ar    1  ZINC000081577146   -0.0200
     18 C18        -3.4317    2.7339   54.9415 C.ar    1  ZINC000081577146   -0.1000
     19 C19        -3.8897    1.9974   56.0145 C.ar    1  ZINC000081577146   -0.1200
     20 C20        -5.1683    2.2011   56.5020 C.ar    1  ZINC000081577146   -0.1100
     21 C21        -5.9959    3.1436   55.9180 C.ar    1  ZINC000081577146   -0.1100
     22 C22        -5.5481    3.8912   54.8485 C.ar    1  ZINC000081577146   -0.0900
     23 O23        -2.5066    4.5444   52.7427 O.3     1  ZINC000081577146   -0.2000
     24 C24        -1.1426    3.3396   50.5672 C.3     1  ZINC000081577146    0.0600
     25 C25        -0.7469    2.2438   49.5747 C.3     1  ZINC000081577146    0.0500
     26 N26        -0.9818    1.4460   46.2067 N.2     1  ZINC000081577146   -0.5400
     27 H27         0.6897    0.4020   43.9868 H       1  ZINC000081577146    0.0900
     28 H28        -0.7587   -0.5624   43.6124 H       1  ZINC000081577146    0.0900
     29 H29        -0.8482    1.2154   43.6107 H       1  ZINC000081577146    0.0900
     30 H30        -0.3757    3.8016   47.4419 H       1  ZINC000081577146    0.0700
     31 H31        -2.0545    3.7282   46.8535 H       1  ZINC000081577146    0.1100
     32 H32        -1.6635    5.7408   48.2691 H       1  ZINC000081577146    0.1000
     33 H33        -2.8614    4.6456   49.0007 H       1  ZINC000081577146    0.0600
     34 H34         0.1102    5.0199   52.3639 H       1  ZINC000081577146    0.0800
     35 H35         0.7983    6.2038   51.2268 H       1  ZINC000081577146    0.0800
     36 H36        -0.3030    6.7444   52.5164 H       1  ZINC000081577146    0.0700
     37 H37        -5.5870    5.4528   52.4769 H       1  ZINC000081577146    0.1900
     38 H38        -2.4336    2.5734   54.5615 H       1  ZINC000081577146    0.1300
     39 H39        -3.2487    1.2598   56.4746 H       1  ZINC000081577146    0.1300
     40 H40        -5.5221    1.6217   57.3419 H       1  ZINC000081577146    0.1300
     41 H41        -6.9932    3.2973   56.3030 H       1  ZINC000081577146    0.1300
     42 H42        -6.1949    4.6269   54.3938 H       1  ZINC000081577146    0.1300
     43 H43        -0.5050    3.2791   51.4491 H       1  ZINC000081577146    0.0900
     44 H44        -2.1838    3.2056   50.8608 H       1  ZINC000081577146    0.0500
     45 H45        -0.8959    1.2665   50.0336 H       1  ZINC000081577146    0.1000
     46 H46         0.3018    2.3617   49.3019 H       1  ZINC000081577146    0.0800
@<TRIPOS>BOND
     1     1     2    1
     2     1    27    1
     3     1    28    1
     4     1    29    1
     5     2    26    1
     6     2     3    2
     7     3     4    1
     8     4     5    1
     9     5     6    1
    10     5    26    2
    11     6    25    1
    12     6     7    1
    13     7     8    1
    14     7    30    1
    15     7    31    1
    16     8     9    1
    17     8    32    1
    18     8    33    1
    19     9    10    1
    20     9    24    1
    21    10    11    1
    22    10    12    1
    23    10    13    1
    24    12    34    1
    25    12    35    1
    26    12    36    1
    27    13    23    1
    28    13    14    2
    29    14    15    1
    30    15    16    2
    31    15    37    1
    32    16    17    1
    33    16    23    1
    34    17    22   ar
    35    17    18   ar
    36    18    19   ar
    37    18    38    1
    38    19    20   ar
    39    19    39    1
    40    20    21   ar
    41    20    40    1
    42    21    22   ar
    43    21    41    1
    44    22    42    1
    45    24    25    1
    46    24    43    1
    47    24    44    1
    48    25    45    1
    49    25    46    1
@<TRIPOS>SUBSTRUCTURE
     1 ZINC000081577146        1 TEMP              0 ****  ****    0 ROOT


##########                                Name:    ZINC001085711660
##########                DOCK_Rotatable_Bonds:                   8
##########                         Heavy_Atoms:                  25
##########                    Molecular_Weight:             347.414
##########                DOCK_Rotatable_Bonds:                   8
##########                       Formal_Charge:         -0.00999993
##########                     HBond_Acceptors:                   7
##########                        HBond_Donors:                   0
##########                         Heavy_Atoms:                  25
##########                          Grid_Score:          -29.430506
##########                     Grid_vdw_energy:          -28.835890
##########                      Grid_es_energy:           -0.594617
##########           Internal_energy_repulsive:           16.090418

@<TRIPOS>MOLECULE
ZINC001085711660
 50 52 1 0 0
SMALL
USER_CHARGES


@<TRIPOS>ATOM
      1 C1        -10.3016   -0.8887   53.4939 C.3     1  ZINC001085711660    0.0300
      2 O2        -11.6037   -0.3822   53.7940 O.3     1  ZINC001085711660   -0.3800
      3 C3        -12.1619   -0.8951   55.0054 C.3     1  ZINC001085711660    0.1400
      4 C4        -11.3632   -0.3906   56.1796 C.2     1  ZINC001085711660    0.0100
      5 C5        -11.4628    0.8401   56.7286 C.2     1  ZINC001085711660   -0.1900
      6 C6        -10.5482    0.8934   57.7920 C.2     1  ZINC001085711660   -0.1200
      7 C7         -9.9290   -0.3227   57.8385 C.2     1  ZINC001085711660   -0.0700
      8 C8         -8.8924   -0.7259   58.7943 C.2     1  ZINC001085711660    0.6000
      9 O9         -7.7461   -0.3455   58.6454 O.2     1  ZINC001085711660   -0.5200
     10 N10        -9.2094   -1.5179   59.8378 N.am    1  ZINC001085711660   -0.6000
     11 C11        -8.1739   -1.9207   60.7928 C.3     1  ZINC001085711660    0.0700
     12 C12       -10.5894   -1.9760   60.0172 C.3     1  ZINC001085711660    0.1300
     13 C13       -11.4118   -0.8693   60.6804 C.3     1  ZINC001085711660    0.0000
     14 H14       -11.6844   -0.0737   59.9870 H       1  ZINC001085711660    0.1000
     15 C15       -10.8004   -0.3552   61.9914 C.3     1  ZINC001085711660   -0.1400
     16 C16       -12.2627   -0.3166   62.4571 C.3     1  ZINC001085711660    0.0100
     17 N17       -12.5497   -1.3759   61.4701 N.3     1  ZINC001085711660   -0.4500
     18 C18       -13.8232   -1.1239   60.7827 C.3     1  ZINC001085711660    0.1500
     19 H19       -13.7369   -0.2217   60.1771 H       1  ZINC001085711660    0.1000
     20 C20       -14.9340   -0.9385   61.8185 C.3     1  ZINC001085711660   -0.1900
     21 C21       -14.1550   -2.2952   59.8945 C.2     1  ZINC001085711660    0.2000
     22 N22       -15.2057   -3.0572   60.0048 N.2     1  ZINC001085711660   -0.4700
     23 C23       -15.1628   -3.9931   59.0401 C.2     1  ZINC001085711660   -0.0400
     24 C24       -14.0460   -3.7879   58.3224 C.2     1  ZINC001085711660   -0.0500
     25 C25       -13.5824   -4.5954   57.1374 C.3     1  ZINC001085711660   -0.0700
     26 O26       -13.4209   -2.7210   58.8580 O.3     1  ZINC001085711660   -0.2000
     27 O27       -10.4417   -1.0901   56.8544 O.3     1  ZINC001085711660   -0.1500
     28 H28        -9.6157   -0.6278   54.2997 H       1  ZINC001085711660    0.0500
     29 H29       -10.3480   -1.9732   53.3929 H       1  ZINC001085711660    0.0500
     30 H30        -9.9481   -0.4517   52.5599 H       1  ZINC001085711660    0.0900
     31 H31       -13.1954   -0.5618   55.0990 H       1  ZINC001085711660    0.0900
     32 H32       -12.1317   -1.9845   54.9867 H       1  ZINC001085711660    0.0700
     33 H33       -12.1223    1.6335   56.4092 H       1  ZINC001085711660    0.1600
     34 H34       -10.3689    1.7335   58.4465 H       1  ZINC001085711660    0.1600
     35 H35        -8.0429   -1.1368   61.5387 H       1  ZINC001085711660    0.0600
     36 H36        -8.4744   -2.8450   61.2860 H       1  ZINC001085711660    0.0900
     37 H37        -7.2342   -2.0799   60.2639 H       1  ZINC001085711660    0.0800
     38 H38       -11.0212   -2.2171   59.0459 H       1  ZINC001085711660    0.0900
     39 H39       -10.5983   -2.8638   60.6494 H       1  ZINC001085711660    0.0900
     40 H40       -10.1847   -1.0873   62.5140 H       1  ZINC001085711660    0.1000
     41 H41       -10.3316    0.6255   61.9108 H       1  ZINC001085711660    0.0800
     42 H42       -12.3980   -0.6366   63.4902 H       1  ZINC001085711660    0.0900
     43 H43       -12.7633    0.6266   62.2383 H       1  ZINC001085711660    0.0800
     44 H44       -14.9480   -1.7943   62.4933 H       1  ZINC001085711660    0.0800
     45 H45       -14.7501   -0.0285   62.3895 H       1  ZINC001085711660    0.0800
     46 H46       -15.8952   -0.8606   61.3104 H       1  ZINC001085711660    0.0700
     47 H47       -15.8942   -4.7699   58.8728 H       1  ZINC001085711660    0.1800
     48 H48       -13.9901   -4.1651   56.2227 H       1  ZINC001085711660    0.0800
     49 H49       -12.4934   -4.5812   57.0917 H       1  ZINC001085711660    0.0800
     50 H50       -13.9283   -5.6238   57.2408 H       1  ZINC001085711660    0.0900
@<TRIPOS>BOND
     1     1     2    1
     2     1    28    1
     3     1    29    1
     4     1    30    1
     5     2     3    1
     6     3     4    1
     7     3    31    1
     8     3    32    1
     9     4    27    1
    10     4     5    2
    11     5     6    1
    12     5    33    1
    13     6     7    2
    14     6    34    1
    15     7     8    1
    16     7    27    1
    17     8     9    2
    18     8    10   am
    19    10    11    1
    20    10    12    1
    21    11    35    1
    22    11    36    1
    23    11    37    1
    24    12    13    1
    25    12    38    1
    26    12    39    1
    27    13    14    1
    28    13    17    1
    29    13    15    1
    30    15    16    1
    31    15    40    1
    32    15    41    1
    33    16    17    1
    34    16    42    1
    35    16    43    1
    36    17    18    1
    37    18    19    1
    38    18    20    1
    39    18    21    1
    40    20    44    1
    41    20    45    1
    42    20    46    1
    43    21    26    1
    44    21    22    2
    45    22    23    1
    46    23    24    2
    47    23    47    1
    48    24    25    1
    49    24    26    1
    50    25    48    1
    51    25    49    1
    52    25    50    1
@<TRIPOS>SUBSTRUCTURE
     1 ZINC001085711660        1 TEMP              0 ****  ****    0 ROOT


##########                                Name:    ZINC000545381384
##########                DOCK_Rotatable_Bonds:                   6
##########                         Heavy_Atoms:                  30
##########                    Molecular_Weight:             405.543
##########                DOCK_Rotatable_Bonds:                   6
##########                       Formal_Charge:                0.05
##########                     HBond_Acceptors:                   6
##########                        HBond_Donors:                   1
##########                         Heavy_Atoms:                  30
##########                          Grid_Score:          -29.419401
##########                     Grid_vdw_energy:          -27.889448
##########                      Grid_es_energy:           -1.529952
##########           Internal_energy_repulsive:           17.512817

@<TRIPOS>MOLECULE
ZINC000545381384
 61 64 1 0 0
SMALL
USER_CHARGES


@<TRIPOS>ATOM
      1 C1        -13.6441   -4.9623   56.9928 C.3     1  ZINC000545381384   -0.2000
      2 C2        -13.5972   -3.4396   57.1355 C.3     1  ZINC000545381384    0.0500
      3 N3        -13.8977   -3.0685   58.5247 N.3     1  ZINC000545381384   -0.5300
      4 C4        -15.3474   -2.9235   58.7300 C.3     1  ZINC000545381384    0.0500
      5 C5        -15.6278   -2.9143   60.2325 C.3     1  ZINC000545381384   -0.0700
      6 C6        -14.7372   -1.9049   60.9165 C.ar    1  ZINC000545381384    0.1800
      7 C7        -13.6032   -1.4047   60.2874 C.ar    1  ZINC000545381384   -0.0800
      8 C8        -13.2064   -1.8306   58.8990 C.3     1  ZINC000545381384    0.0900
      9 C9        -12.8006   -0.4780   60.9483 C.ar    1  ZINC000545381384   -0.0700
     10 C10       -11.5863    0.0697   60.3070 C.2     1  ZINC000545381384    0.5800
     11 O11       -11.6778    0.9910   59.5193 O.2     1  ZINC000545381384   -0.4800
     12 N12       -10.3779   -0.4526   60.5957 N.am    1  ZINC000545381384   -0.6400
     13 C13        -9.2332    0.0646   59.9925 C.2     1  ZINC000545381384    0.3000
     14 C14        -9.0896    0.3814   58.6760 C.2     1  ZINC000545381384   -0.2700
     15 C15        -7.7926    0.8671   58.4912 C.2     1  ZINC000545381384    0.1000
     16 C16        -7.2052    1.3357   57.1850 C.3     1  ZINC000545381384   -0.0300
     17 C17        -7.4989    2.8257   56.9990 C.3     1  ZINC000545381384   -0.0600
     18 C18        -6.8755    3.6161   58.1513 C.3     1  ZINC000545381384   -0.1500
     19 C19        -6.9025    3.3015   55.6728 C.3     1  ZINC000545381384   -0.1400
     20 C20        -9.0124    3.0496   56.9871 C.3     1  ZINC000545381384   -0.1400
     21 N21        -7.1747    0.8467   59.6443 N.2     1  ZINC000545381384   -0.2700
     22 N22        -8.0585    0.3506   60.6112 N.pl3   1  ZINC000545381384   -0.3900
     23 C23        -7.7650    0.1651   62.0345 C.3     1  ZINC000545381384    0.1000
     24 C24       -13.1804   -0.0745   62.2517 C.ar    1  ZINC000545381384   -0.0700
     25 C25       -12.4270    0.8539   62.9811 C.ar    1  ZINC000545381384   -0.1100
     26 C26       -12.8301    1.2151   64.2316 C.ar    1  ZINC000545381384   -0.1000
     27 C27       -13.9831    0.6719   64.7948 C.ar    1  ZINC000545381384   -0.1000
     28 C28       -14.7375   -0.2332   64.1145 C.ar    1  ZINC000545381384   -0.0900
     29 C29       -14.3532   -0.6303   62.8203 C.ar    1  ZINC000545381384    0.1400
     30 N30       -15.0712   -1.5150   62.1295 N.ar    1  ZINC000545381384   -0.4600
     31 H31       -12.9297   -5.4139   57.6812 H       1  ZINC000545381384    0.0600
     32 H32       -14.6476   -5.3183   57.2254 H       1  ZINC000545381384    0.0600
     33 H33       -13.3880   -5.2395   55.9701 H       1  ZINC000545381384    0.0700
     34 H34       -12.6029   -3.0803   56.8703 H       1  ZINC000545381384    0.0900
     35 H35       -14.3352   -2.9896   56.4714 H       1  ZINC000545381384    0.0800
     36 H36       -15.6878   -1.9868   58.2884 H       1  ZINC000545381384    0.0500
     37 H37       -15.8684   -3.7608   58.2657 H       1  ZINC000545381384    0.0900
     38 H38       -16.6715   -2.6512   60.4042 H       1  ZINC000545381384    0.1000
     39 H39       -15.4336   -3.9052   60.6430 H       1  ZINC000545381384    0.1000
     40 H40       -12.1294   -1.9955   58.8668 H       1  ZINC000545381384    0.0900
     41 H41       -13.4685   -1.0434   58.1920 H       1  ZINC000545381384    0.0700
     42 H42       -10.3049   -1.1886   61.2233 H       1  ZINC000545381384    0.4100
     43 H43        -9.8441    0.2756   57.9106 H       1  ZINC000545381384    0.1700
     44 H44        -6.1269    1.1763   57.1936 H       1  ZINC000545381384    0.0800
     45 H45        -7.6492    0.7726   56.3641 H       1  ZINC000545381384    0.0800
     46 H46        -5.7973    3.4566   58.1598 H       1  ZINC000545381384    0.0500
     47 H47        -7.0848    4.6776   58.0187 H       1  ZINC000545381384    0.0500
     48 H48        -7.3004    3.2772   59.0961 H       1  ZINC000545381384    0.0800
     49 H49        -7.3466    2.7384   54.8519 H       1  ZINC000545381384    0.0600
     50 H50        -7.1117    4.3630   55.5403 H       1  ZINC000545381384    0.0600
     51 H51        -5.8242    3.1419   55.6813 H       1  ZINC000545381384    0.0600
     52 H52        -9.4372    2.7107   57.9320 H       1  ZINC000545381384    0.0500
     53 H53        -9.2216    4.1111   56.8546 H       1  ZINC000545381384    0.0500
     54 H54        -9.4564    2.4864   56.1662 H       1  ZINC000545381384    0.0500
     55 H55        -8.0183    1.0746   62.5793 H       1  ZINC000545381384    0.0800
     56 H56        -8.3542   -0.6662   62.4216 H       1  ZINC000545381384    0.0800
     57 H57        -6.7043   -0.0511   62.1616 H       1  ZINC000545381384    0.1000
     58 H58       -11.5312    1.2810   62.5549 H       1  ZINC000545381384    0.1300
     59 H59       -12.2486    1.9311   64.7934 H       1  ZINC000545381384    0.1300
     60 H60       -14.2825    0.9739   65.7876 H       1  ZINC000545381384    0.1400
     61 H61       -15.6278   -0.6453   64.5661 H       1  ZINC000545381384    0.1400
@<TRIPOS>BOND
     1     1     2    1
     2     1    31    1
     3     1    32    1
     4     1    33    1
     5     2     3    1
     6     2    34    1
     7     2    35    1
     8     3     8    1
     9     3     4    1
    10     4     5    1
    11     4    36    1
    12     4    37    1
    13     5     6    1
    14     5    38    1
    15     5    39    1
    16     6    30   ar
    17     6     7   ar
    18     7     8    1
    19     7     9   ar
    20     8    40    1
    21     8    41    1
    22     9    10    1
    23     9    24   ar
    24    10    11    2
    25    10    12   am
    26    12    13    1
    27    12    42    1
    28    13    22    1
    29    13    14    2
    30    14    15    1
    31    14    43    1
    32    15    16    1
    33    15    21    2
    34    16    17    1
    35    16    44    1
    36    16    45    1
    37    17    18    1
    38    17    19    1
    39    17    20    1
    40    18    46    1
    41    18    47    1
    42    18    48    1
    43    19    49    1
    44    19    50    1
    45    19    51    1
    46    20    52    1
    47    20    53    1
    48    20    54    1
    49    21    22    1
    50    22    23    1
    51    23    55    1
    52    23    56    1
    53    23    57    1
    54    24    29   ar
    55    24    25   ar
    56    25    26   ar
    57    25    58    1
    58    26    27   ar
    59    26    59    1
    60    27    28   ar
    61    27    60    1
    62    28    29   ar
    63    28    61    1
    64    29    30   ar
@<TRIPOS>SUBSTRUCTURE
     1 ZINC000545381384        1 TEMP              0 ****  ****    0 ROOT


##########                                Name:    ZINC000331626032
##########                DOCK_Rotatable_Bonds:                   5
##########                         Heavy_Atoms:                  25
##########                    Molecular_Weight:              339.44
##########                DOCK_Rotatable_Bonds:                   5
##########                       Formal_Charge:        -2.16067e-07
##########                     HBond_Acceptors:                   6
##########                        HBond_Donors:                   2
##########                         Heavy_Atoms:                  25
##########                          Grid_Score:          -29.386650
##########                     Grid_vdw_energy:          -28.559652
##########                      Grid_es_energy:           -0.826998
##########           Internal_energy_repulsive:          184.177994

@<TRIPOS>MOLECULE
ZINC000331626032
 50 52 1 0 0
SMALL
USER_CHARGES


@<TRIPOS>ATOM
      1 C1         -1.5429    3.7305   52.4880 C.3     1  ZINC000331626032   -0.2000
      2 C2         -2.8167    3.6115   51.6489 C.3     1  ZINC000331626032    0.0700
      3 H3         -3.2471    2.6188   51.7806 H       1  ZINC000331626032    0.1100
      4 C4         -3.8107    4.6530   52.0942 C.2     1  ZINC000331626032    0.5200
      5 O5         -4.0044    5.6371   51.4123 O.2     1  ZINC000331626032   -0.5000
      6 N6         -4.4843    4.4908   53.2502 N.am    1  ZINC000331626032   -0.5800
      7 C7         -4.2503    3.3023   54.0739 C.3     1  ZINC000331626032    0.0800
      8 C8         -5.4073    5.4580   53.6636 C.ar    1  ZINC000331626032    0.1400
      9 C9         -6.0988    5.2946   54.8569 C.ar    1  ZINC000331626032   -0.1000
     10 C10        -7.0090    6.2510   55.2622 C.ar    1  ZINC000331626032   -0.1100
     11 C11        -7.2326    7.3699   54.4811 C.ar    1  ZINC000331626032   -0.1200
     12 C12        -6.5460    7.5352   53.2922 C.ar    1  ZINC000331626032   -0.1100
     13 C13        -5.6295    6.5858   52.8846 C.ar    1  ZINC000331626032   -0.1200
     14 N14        -2.4908    3.8199   50.2317 N.3     1  ZINC000331626032   -0.5100
     15 C15        -1.4043    4.7959   50.0796 C.3     1  ZINC000331626032    0.0500
     16 C16        -1.1909    5.0964   48.5944 C.3     1  ZINC000331626032   -0.1100
     17 C17        -0.8423    3.7983   47.8609 C.3     1  ZINC000331626032   -0.1100
     18 C18        -1.9676    2.7822   48.0754 C.3     1  ZINC000331626032   -0.0400
     19 H19        -2.8926    3.1677   47.6465 H       1  ZINC000331626032    0.1000
     20 C20        -1.6058    1.4818   47.4052 C.ar    1  ZINC000331626032    0.2300
     21 C21        -1.7793    1.3249   46.0393 C.ar    1  ZINC000331626032   -0.2900
     22 C22        -1.4341    0.1126   45.4623 C.ar    1  ZINC000331626032    0.1900
     23 N23        -0.9524   -0.8524   46.2279 N.ar    1  ZINC000331626032   -0.5700
     24 C24        -0.7988   -0.6698   47.5313 C.ar    1  ZINC000331626032    0.5700
     25 N25        -0.2915   -1.7010   48.3027 N.pl3   1  ZINC000331626032   -0.8200
     26 N26        -1.1139    0.4781   48.1127 N.ar    1  ZINC000331626032   -0.5700
     27 C27        -2.1585    2.5488   49.5757 C.3     1  ZINC000331626032    0.0700
     28 H28        -1.1125    4.7232   52.3563 H       1  ZINC000331626032    0.0700
     29 H29        -1.7847    3.5759   53.5396 H       1  ZINC000331626032    0.0800
     30 H30        -0.8239    2.9772   52.1659 H       1  ZINC000331626032    0.0700
     31 H31        -3.4466    3.5035   54.7823 H       1  ZINC000331626032    0.0600
     32 H32        -5.1608    3.0527   54.6187 H       1  ZINC000331626032    0.0800
     33 H33        -3.9692    2.4661   53.4337 H       1  ZINC000331626032    0.0800
     34 H34        -5.9251    4.4206   55.4671 H       1  ZINC000331626032    0.1200
     35 H35        -7.5471    6.1246   56.1901 H       1  ZINC000331626032    0.1300
     36 H36        -7.9452    8.1162   54.8001 H       1  ZINC000331626032    0.1300
     37 H37        -6.7233    8.4099   52.6840 H       1  ZINC000331626032    0.1300
     38 H38        -5.0936    6.7155   51.9559 H       1  ZINC000331626032    0.1200
     39 H39        -1.6666    5.7158   50.6022 H       1  ZINC000331626032    0.0900
     40 H40        -0.4868    4.3869   50.5029 H       1  ZINC000331626032    0.0300
     41 H41        -2.1036    5.5183   48.1736 H       1  ZINC000331626032    0.0800
     42 H42        -0.3739    5.8090   48.4809 H       1  ZINC000331626032    0.0700
     43 H43        -0.7320    4.0001   46.7955 H       1  ZINC000331626032    0.0700
     44 H44         0.0911    3.3965   48.2551 H       1  ZINC000331626032    0.0700
     45 H45        -2.1753    2.1295   45.4373 H       1  ZINC000331626032    0.1400
     46 H46        -1.5574   -0.0422   44.4006 H       1  ZINC000331626032    0.1700
     47 H47        -0.0530   -2.5448   47.8881 H       1  ZINC000331626032    0.4100
     48 H48        -0.1744   -1.5797   49.2579 H       1  ZINC000331626032    0.4100
     49 H49        -1.2375    2.1504   50.0014 H       1  ZINC000331626032    0.0400
     50 H50        -2.9686    1.8366   49.7324 H       1  ZINC000331626032    0.0800
@<TRIPOS>BOND
     1     1     2    1
     2     1    28    1
     3     1    29    1
     4     1    30    1
     5     2     3    1
     6     2     4    1
     7     2    14    1
     8     4     5    2
     9     4     6   am
    10     6     7    1
    11     6     8    1
    12     7    31    1
    13     7    32    1
    14     7    33    1
    15     8    13   ar
    16     8     9   ar
    17     9    10   ar
    18     9    34    1
    19    10    11   ar
    20    10    35    1
    21    11    12   ar
    22    11    36    1
    23    12    13   ar
    24    12    37    1
    25    13    38    1
    26    14    27    1
    27    14    15    1
    28    15    16    1
    29    15    39    1
    30    15    40    1
    31    16    17    1
    32    16    41    1
    33    16    42    1
    34    17    18    1
    35    17    43    1
    36    17    44    1
    37    18    19    1
    38    18    20    1
    39    18    27    1
    40    20    26   ar
    41    20    21   ar
    42    21    22   ar
    43    21    45    1
    44    22    23   ar
    45    22    46    1
    46    23    24   ar
    47    24    25    1
    48    24    26   ar
    49    25    47    1
    50    25    48    1
    51    27    49    1
    52    27    50    1
@<TRIPOS>SUBSTRUCTURE
     1 ZINC000331626032        1 TEMP              0 ****  ****    0 ROOT


##########                                Name:    ZINC001211202056
##########                DOCK_Rotatable_Bonds:                   4
##########                         Heavy_Atoms:                  23
##########                    Molecular_Weight:             386.181
##########                DOCK_Rotatable_Bonds:                   4
##########                       Formal_Charge:           0.0199999
##########                     HBond_Acceptors:                  11
##########                        HBond_Donors:                   3
##########                         Heavy_Atoms:                  23
##########                          Grid_Score:          -29.365961
##########                     Grid_vdw_energy:          -27.891073
##########                      Grid_es_energy:           -1.474888
##########           Internal_energy_repulsive:            7.260758

@<TRIPOS>MOLECULE
ZINC001211202056
 31 32 1 0 0
SMALL
USER_CHARGES


@<TRIPOS>ATOM
      1 N1          1.8757   -2.1446   48.5920 N.pl3   1  ZINC001211202056   -0.8500
      2 C2          1.0248   -1.0658   48.3364 C.ar    1  ZINC001211202056    0.2900
      3 C3         -0.3426   -1.2722   48.2138 C.ar    1  ZINC001211202056   -0.2000
      4 C4         -1.1812   -0.2037   47.9609 C.ar    1  ZINC001211202056    0.0400
      5 C5         -0.6606    1.0702   47.8296 C.ar    1  ZINC001211202056   -0.7300
      6 S6         -1.7342    2.4296   47.5072 S.o2    1  ZINC001211202056    2.6900
      7 O7         -3.0286    2.0291   47.9354 O.2     1  ZINC001211202056   -0.9400
      8 O8         -1.0755    3.5873   48.0022 O.2     1  ZINC001211202056   -0.9300
      9 N9         -1.8198    2.6074   45.8630 N.am    1  ZINC001211202056   -1.0500
     10 C10        -0.6604    2.8673   45.1268 C.ar    1  ZINC001211202056    0.1600
     11 C11        -0.2039    4.1722   44.9653 C.ar    1  ZINC001211202056   -0.1200
     12 C12         0.9507    4.3796   44.2271 C.ar    1  ZINC001211202056   -0.0800
     13 C13         1.6064    3.2936   43.6795 C.ar    1  ZINC001211202056    0.0400
     14 C14         2.8623    3.5123   42.8757 C.3     1  ZINC001211202056    0.5300
     15 F15         3.9088    3.8679   43.7334 F       1  ZINC001211202056   -0.1700
     16 F16         3.1940    2.3336   42.1990 F       1  ZINC001211202056   -0.1600
     17 F17         2.6500    4.5382   41.9486 F       1  ZINC001211202056   -0.1700
     18 N18         1.1490    2.0680   43.8504 N.ar    1  ZINC001211202056   -0.4100
     19 C19         0.0574    1.8255   44.5492 C.ar    1  ZINC001211202056    0.1600
     20 Cl20       -0.4957    0.1910   44.7401 Cl      1  ZINC001211202056    0.0000
     21 C21         0.7012    1.2803   47.9510 C.ar    1  ZINC001211202056    0.0400
     22 C22         1.5450    0.2172   48.2099 C.ar    1  ZINC001211202056   -0.1400
     23 Cl23        3.2541    0.4812   48.3622 Cl      1  ZINC001211202056   -0.0500
     24 H24         2.8306   -1.9985   48.6814 H       1  ZINC001211202056    0.4100
     25 H25         1.5111   -3.0387   48.6840 H       1  ZINC001211202056    0.4100
     26 H26        -0.7504   -2.2670   48.3156 H       1  ZINC001211202056    0.1400
     27 H27        -2.2450   -0.3639   47.8655 H       1  ZINC001211202056    0.1500
     28 H28        -2.6746    2.5312   45.4108 H       1  ZINC001211202056    0.4400
     29 H29        -0.7366    5.0029   45.4043 H       1  ZINC001211202056    0.2000
     30 H30         1.3334    5.3788   44.0813 H       1  ZINC001211202056    0.1700
     31 H31         1.1047    2.2767   47.8478 H       1  ZINC001211202056    0.1500
@<TRIPOS>BOND
     1     1     2    1
     2     1    24    1
     3     1    25    1
     4     2    22   ar
     5     2     3   ar
     6     3     4   ar
     7     3    26    1
     8     4     5   ar
     9     4    27    1
    10     5     6    1
    11     5    21   ar
    12     6     7    2
    13     6     8    2
    14     6     9   am
    15     9    10    1
    16     9    28    1
    17    10    19   ar
    18    10    11   ar
    19    11    12   ar
    20    11    29    1
    21    12    13   ar
    22    12    30    1
    23    13    14    1
    24    13    18   ar
    25    14    15    1
    26    14    16    1
    27    14    17    1
    28    18    19   ar
    29    19    20    1
    30    21    22   ar
    31    21    31    1
    32    22    23    1
@<TRIPOS>SUBSTRUCTURE
     1 ZINC001211202056        1 TEMP              0 ****  ****    0 ROOT


##########                                Name:    ZINC000534890536
##########                DOCK_Rotatable_Bonds:                   6
##########                         Heavy_Atoms:                  30
##########                    Molecular_Weight:             411.476
##########                DOCK_Rotatable_Bonds:                   6
##########                       Formal_Charge:          0.00999957
##########                     HBond_Acceptors:                   7
##########                        HBond_Donors:                   1
##########                         Heavy_Atoms:                  30
##########                          Grid_Score:          -29.353991
##########                     Grid_vdw_energy:          -28.379139
##########                      Grid_es_energy:           -0.974853
##########           Internal_energy_repulsive:           15.988429

@<TRIPOS>MOLECULE
ZINC000534890536
 56 59 1 0 0
SMALL
USER_CHARGES


@<TRIPOS>ATOM
      1 C1         -2.9390    1.9436   67.2005 C.3     1  ZINC000534890536    0.0300
      2 O2         -4.0237    1.0417   67.4287 O.3     1  ZINC000534890536   -0.3200
      3 C3         -4.9881    0.9822   66.4731 C.ar    1  ZINC000534890536    0.1300
      4 C4         -4.8889    1.7706   65.3358 C.ar    1  ZINC000534890536   -0.2100
      5 C5         -5.8703    1.7079   64.3656 C.ar    1  ZINC000534890536   -0.0700
      6 C6         -6.9510    0.8607   64.5275 C.ar    1  ZINC000534890536   -0.1100
      7 C7         -8.0204    0.7947   63.4678 C.3     1  ZINC000534890536   -0.0600
      8 H8         -8.7589    1.5835   63.6112 H       1  ZINC000534890536    0.0900
      9 C9         -8.6958   -0.6020   63.4453 C.3     1  ZINC000534890536   -0.1200
     10 C10        -9.1916   -0.7227   61.9889 C.3     1  ZINC000534890536    0.1000
     11 N11        -8.3856    0.1994   61.1755 N.am    1  ZINC000534890536   -0.6400
     12 C12        -8.5241    0.4041   59.8505 C.2     1  ZINC000534890536    0.7300
     13 O13        -9.3752   -0.2009   59.2276 O.2     1  ZINC000534890536   -0.5700
     14 N14        -7.7192    1.2793   59.2161 N.am    1  ZINC000534890536   -0.7300
     15 C15        -7.8686    1.5005   57.7756 C.3     1  ZINC000534890536    0.1600
     16 H16        -8.1952    0.5761   57.2993 H       1  ZINC000534890536    0.1200
     17 C17        -8.9131    2.5932   57.5347 C.3     1  ZINC000534890536   -0.1300
     18 C18        -8.8559    3.0011   56.0576 C.3     1  ZINC000534890536   -0.1300
     19 C19        -7.5214    3.6995   55.7937 C.3     1  ZINC000534890536    0.1100
     20 N20        -6.4156    2.8922   56.2936 N.am    1  ZINC000534890536   -0.5600
     21 C21        -5.1333    3.1554   55.7957 C.ar    1  ZINC000534890536    0.1000
     22 C22        -4.1824    3.7582   56.6069 C.ar    1  ZINC000534890536   -0.0800
     23 C23        -2.9179    4.0162   56.1132 C.ar    1  ZINC000534890536   -0.1200
     24 C24        -2.5984    3.6754   54.8121 C.ar    1  ZINC000534890536   -0.0800
     25 C25        -3.5427    3.0744   53.9995 C.ar    1  ZINC000534890536   -0.1500
     26 C26        -4.8082    2.8081   54.4887 C.ar    1  ZINC000534890536    0.1100
     27 F27        -5.7306    2.2207   53.6953 F       1  ZINC000534890536   -0.1300
     28 C28        -6.5486    1.9211   57.1959 C.2     1  ZINC000534890536    0.5000
     29 O29        -5.5496    1.3428   57.5685 O.2     1  ZINC000534890536   -0.5100
     30 C30        -7.4017    0.8648   62.0493 C.3     1  ZINC000534890536    0.1300
     31 C31        -7.0520    0.0736   65.6599 C.ar    1  ZINC000534890536   -0.0700
     32 C32        -6.0706    0.1288   66.6305 C.ar    1  ZINC000534890536   -0.1500
     33 H33        -2.4234    1.6666   66.2809 H       1  ZINC000534890536    0.0600
     34 H34        -3.3240    2.9593   67.1093 H       1  ZINC000534890536    0.0600
     35 H35        -2.2422    1.8929   68.0372 H       1  ZINC000534890536    0.1000
     36 H36        -4.0454    2.4329   65.2092 H       1  ZINC000534890536    0.1300
     37 H37        -5.7936    2.3213   63.4800 H       1  ZINC000534890536    0.1300
     38 H38        -7.9714   -1.3842   63.6722 H       1  ZINC000534890536    0.0800
     39 H39        -9.5334   -0.6365   64.1420 H       1  ZINC000534890536    0.0900
     40 H40        -9.0560   -1.7447   61.6348 H       1  ZINC000534890536    0.0700
     41 H41       -10.2440   -0.4448   61.9312 H       1  ZINC000534890536    0.0700
     42 H42        -7.0410    1.7629   59.7132 H       1  ZINC000534890536    0.4000
     43 H43        -9.9059    2.2106   57.7716 H       1  ZINC000534890536    0.0900
     44 H44        -8.6926    3.4566   58.1625 H       1  ZINC000534890536    0.0800
     45 H45        -8.9346    2.1135   55.4298 H       1  ZINC000534890536    0.0800
     46 H46        -9.6762    3.6834   55.8346 H       1  ZINC000534890536    0.1000
     47 H47        -7.4003    3.8518   54.7212 H       1  ZINC000534890536    0.0800
     48 H48        -7.5162    4.6675   56.2947 H       1  ZINC000534890536    0.0700
     49 H49        -4.4306    4.0257   57.6234 H       1  ZINC000534890536    0.1300
     50 H50        -2.1779    4.4853   56.7446 H       1  ZINC000534890536    0.1300
     51 H51        -1.6094    3.8791   54.4291 H       1  ZINC000534890536    0.1400
     52 H52        -3.2900    2.8094   52.9834 H       1  ZINC000534890536    0.1400
     53 H53        -7.2646    1.9025   61.7449 H       1  ZINC000534890536    0.0800
     54 H54        -6.4508    0.3325   62.0242 H       1  ZINC000534890536    0.0700
     55 H55        -7.8968   -0.5875   65.7838 H       1  ZINC000534890536    0.1300
     56 H56        -6.1498   -0.4861   67.5148 H       1  ZINC000534890536    0.1300
@<TRIPOS>BOND
     1     1     2    1
     2     1    33    1
     3     1    34    1
     4     1    35    1
     5     2     3    1
     6     3    32   ar
     7     3     4   ar
     8     4     5   ar
     9     4    36    1
    10     5     6   ar
    11     5    37    1
    12     6     7    1
    13     6    31   ar
    14     7     8    1
    15     7    30    1
    16     7     9    1
    17     9    10    1
    18     9    38    1
    19     9    39    1
    20    10    11    1
    21    10    40    1
    22    10    41    1
    23    11    12   am
    24    11    30    1
    25    12    13    2
    26    12    14   am
    27    14    15    1
    28    14    42    1
    29    15    16    1
    30    15    28    1
    31    15    17    1
    32    17    18    1
    33    17    43    1
    34    17    44    1
    35    18    19    1
    36    18    45    1
    37    18    46    1
    38    19    20    1
    39    19    47    1
    40    19    48    1
    41    20    21    1
    42    20    28   am
    43    21    26   ar
    44    21    22   ar
    45    22    23   ar
    46    22    49    1
    47    23    24   ar
    48    23    50    1
    49    24    25   ar
    50    24    51    1
    51    25    26   ar
    52    25    52    1
    53    26    27    1
    54    28    29    2
    55    30    53    1
    56    30    54    1
    57    31    32   ar
    58    31    55    1
    59    32    56    1
@<TRIPOS>SUBSTRUCTURE
     1 ZINC000534890536        1 TEMP              0 ****  ****    0 ROOT


##########                                Name:    ZINC001061022329
##########                DOCK_Rotatable_Bonds:                   7
##########                         Heavy_Atoms:                  27
##########                    Molecular_Weight:             374.523
##########                DOCK_Rotatable_Bonds:                   7
##########                       Formal_Charge:           0.0800005
##########                     HBond_Acceptors:                   5
##########                        HBond_Donors:                   0
##########                         Heavy_Atoms:                  27
##########                          Grid_Score:          -29.321674
##########                     Grid_vdw_energy:          -28.047487
##########                      Grid_es_energy:           -1.274186
##########           Internal_energy_repulsive:           22.100113

@<TRIPOS>MOLECULE
ZINC001061022329
 61 64 1 0 0
SMALL
USER_CHARGES


@<TRIPOS>ATOM
      1 C1          0.7069    2.2292   57.7127 C.3     1  ZINC001061022329   -0.1500
      2 C2          1.2202    2.6691   56.3401 C.3     1  ZINC001061022329   -0.1200
      3 C3          2.7468    2.7660   56.3735 C.3     1  ZINC001061022329    0.0800
      4 H4          3.0680    3.1018   57.3596 H       1  ZINC001061022329    0.0600
      5 C5          3.3516    1.3915   56.0808 C.3     1  ZINC001061022329   -0.1800
      6 O6          3.1866    3.7002   55.3857 O.3     1  ZINC001061022329   -0.3500
      7 C7          2.7221    3.4119   54.0654 C.3     1  ZINC001061022329    0.0500
      8 C8          1.9961    4.6123   53.5150 C.2     1  ZINC001061022329    0.5200
      9 O9          1.9625    5.6447   54.1506 O.2     1  ZINC001061022329   -0.5100
     10 N10         1.3841    4.5386   52.3165 N.am    1  ZINC001061022329   -0.6100
     11 C11         0.6772    5.7035   51.7683 C.3     1  ZINC001061022329    0.1100
     12 C12        -0.7681    5.3001   51.4533 C.3     1  ZINC001061022329   -0.1200
     13 C13        -0.7585    4.0475   50.5804 C.3     1  ZINC001061022329   -0.0900
     14 C14        -2.1387    3.6783   50.0195 C.3     1  ZINC001061022329    0.1200
     15 N15        -1.4341    3.4004   48.7518 N.am    1  ZINC001061022329   -0.6400
     16 C16        -1.6903    2.6244   47.6800 C.2     1  ZINC001061022329    0.5400
     17 O17        -2.7041    1.9599   47.6408 O.2     1  ZINC001061022329   -0.5300
     18 C18        -0.7168    2.5824   46.5304 C.3     1  ZINC001061022329   -0.0900
     19 H19        -0.1568    3.5169   46.4945 H       1  ZINC001061022329    0.1000
     20 C20        -1.4840    2.3970   45.2193 C.3     1  ZINC001061022329   -0.1000
     21 C21        -1.0267    1.1022   44.5356 C.3     1  ZINC001061022329   -0.0600
     22 H22        -1.5978    0.9238   43.6245 H       1  ZINC001061022329    0.0800
     23 C23        -1.2170   -0.0391   45.5237 C.2     1  ZINC001061022329   -0.1800
     24 C24        -0.5498    0.1221   46.6640 C.2     1  ZINC001061022329   -0.1300
     25 C25         0.2549    1.4116   46.7260 C.3     1  ZINC001061022329   -0.0400
     26 H26         0.7849    1.4912   47.6751 H       1  ZINC001061022329    0.0900
     27 C27         1.2419    1.4022   45.5505 C.3     1  ZINC001061022329   -0.1100
     28 C28         0.4712    1.2242   44.2239 C.3     1  ZINC001061022329   -0.1100
     29 C29        -0.3371    4.3141   49.1286 C.3     1  ZINC001061022329    0.1100
     30 C30        -0.0254    2.8727   51.2230 C.3     1  ZINC001061022329   -0.1100
     31 C31         1.4199    3.2940   51.5372 C.3     1  ZINC001061022329    0.1100
     32 H32         1.1274    1.2551   57.9628 H       1  ZINC001061022329    0.0500
     33 H33         1.0083    2.9589   58.4642 H       1  ZINC001061022329    0.0600
     34 H34        -0.3806    2.1602   57.6889 H       1  ZINC001061022329    0.0600
     35 H35         0.9188    1.9394   55.5886 H       1  ZINC001061022329    0.0800
     36 H36         0.7997    3.6431   56.0900 H       1  ZINC001061022329    0.0700
     37 H37         4.4391    1.4605   56.1046 H       1  ZINC001061022329    0.0600
     38 H38         3.0161    0.6790   56.8343 H       1  ZINC001061022329    0.0700
     39 H39         3.0304    1.0558   55.0947 H       1  ZINC001061022329    0.0700
     40 H40         3.5718    3.1759   53.4247 H       1  ZINC001061022329    0.0800
     41 H41         2.0432    2.5597   54.0971 H       1  ZINC001061022329    0.0800
     42 H42         0.6799    6.5107   52.5009 H       1  ZINC001061022329    0.0900
     43 H43         1.1716    6.0346   50.8549 H       1  ZINC001061022329    0.0800
     44 H44        -1.2994    5.0929   52.3822 H       1  ZINC001061022329    0.0800
     45 H45        -1.2652    6.1113   50.9211 H       1  ZINC001061022329    0.0800
     46 H46        -2.5788    2.7943   50.4809 H       1  ZINC001061022329    0.0800
     47 H47        -2.8298    4.5193   49.9632 H       1  ZINC001061022329    0.0900
     48 H48        -2.5522    2.3395   45.4286 H       1  ZINC001061022329    0.0700
     49 H49        -1.2883    3.2437   44.5613 H       1  ZINC001061022329    0.0700
     50 H50        -1.8360   -0.9000   45.3188 H       1  ZINC001061022329    0.1200
     51 H51        -0.5775   -0.5956   47.4705 H       1  ZINC001061022329    0.1200
     52 H52         1.7835    2.3477   45.5236 H       1  ZINC001061022329    0.0700
     53 H53         1.9489    0.5823   45.6765 H       1  ZINC001061022329    0.0700
     54 H54         0.8119    0.3170   43.7250 H       1  ZINC001061022329    0.0700
     55 H55         0.6549    2.0837   43.5792 H       1  ZINC001061022329    0.0700
     56 H56        -0.4929    5.3441   48.8077 H       1  ZINC001061022329    0.0900
     57 H57         0.6548    3.9355   48.8821 H       1  ZINC001061022329    0.0800
     58 H58        -0.5325    2.5866   52.1445 H       1  ZINC001061022329    0.0800
     59 H59        -0.0158    2.0282   50.5339 H       1  ZINC001061022329    0.0800
     60 H60         1.9640    3.4549   50.6066 H       1  ZINC001061022329    0.0700
     61 H61         1.9098    2.5135   52.1192 H       1  ZINC001061022329    0.1000
@<TRIPOS>BOND
     1     1     2    1
     2     1    32    1
     3     1    33    1
     4     1    34    1
     5     2     3    1
     6     2    35    1
     7     2    36    1
     8     3     4    1
     9     3     5    1
    10     3     6    1
    11     5    37    1
    12     5    38    1
    13     5    39    1
    14     6     7    1
    15     7     8    1
    16     7    40    1
    17     7    41    1
    18     8     9    2
    19     8    10   am
    20    10    31    1
    21    10    11    1
    22    11    12    1
    23    11    42    1
    24    11    43    1
    25    12    13    1
    26    12    44    1
    27    12    45    1
    28    13    29    1
    29    13    14    1
    30    13    30    1
    31    14    15    1
    32    14    46    1
    33    14    47    1
    34    15    16   am
    35    15    29    1
    36    16    17    2
    37    16    18    1
    38    18    19    1
    39    18    25    1
    40    18    20    1
    41    20    21    1
    42    20    48    1
    43    20    49    1
    44    21    22    1
    45    21    28    1
    46    21    23    1
    47    23    24    2
    48    23    50    1
    49    24    25    1
    50    24    51    1
    51    25    26    1
    52    25    27    1
    53    27    28    1
    54    27    52    1
    55    27    53    1
    56    28    54    1
    57    28    55    1
    58    29    56    1
    59    29    57    1
    60    30    31    1
    61    30    58    1
    62    30    59    1
    63    31    60    1
    64    31    61    1
@<TRIPOS>SUBSTRUCTURE
     1 ZINC001061022329        1 TEMP              0 ****  ****    0 ROOT


##########                                Name:    ZINC000979274057
##########                DOCK_Rotatable_Bonds:                   6
##########                         Heavy_Atoms:                  24
##########                    Molecular_Weight:              330.39
##########                DOCK_Rotatable_Bonds:                   6
##########                       Formal_Charge:          0.00999946
##########                     HBond_Acceptors:                   8
##########                        HBond_Donors:                   1
##########                         Heavy_Atoms:                  24
##########                          Grid_Score:          -29.319798
##########                     Grid_vdw_energy:          -27.893440
##########                      Grid_es_energy:           -1.426357
##########           Internal_energy_repulsive:           10.976363

@<TRIPOS>MOLECULE
ZINC000979274057
 46 48 1 0 0
SMALL
USER_CHARGES


@<TRIPOS>ATOM
      1 C1         -2.4337    4.6475   50.1754 C.3     1  ZINC000979274057   -0.1400
      2 C2         -1.8632    3.2604   50.4776 C.3     1  ZINC000979274057    0.1000
      3 H3         -2.6807    2.5651   50.6687 H       1  ZINC000979274057    0.0600
      4 N4         -0.9967    3.3346   51.6615 N.3     1  ZINC000979274057   -0.6700
      5 C5         -1.7908    3.5115   52.8848 C.3     1  ZINC000979274057    0.1300
      6 C6         -0.8915    3.3955   54.0885 C.ar    1  ZINC000979274057    0.3200
      7 N7         -1.3872    2.9276   55.2166 N.ar    1  ZINC000979274057   -0.5200
      8 C8         -0.6279    2.8115   56.2942 C.ar    1  ZINC000979274057    0.1500
      9 C9          0.7039    3.1894   56.2244 C.ar    1  ZINC000979274057   -0.2300
     10 C10         1.1885    3.6768   55.0209 C.ar    1  ZINC000979274057    0.1500
     11 N11         0.3708    3.7594   53.9837 N.ar    1  ZINC000979274057   -0.5000
     12 C12        -1.0479    2.7720   49.2787 C.3     1  ZINC000979274057    0.0800
     13 H13        -0.2615    3.4928   49.0552 H       1  ZINC000979274057    0.0700
     14 C14        -1.9670    2.6230   48.0609 C.3     1  ZINC000979274057    0.0800
     15 N15        -1.2046    1.9778   46.9803 N.am    1  ZINC000979274057   -0.6000
     16 C16        -1.1750    2.5064   45.7408 C.2     1  ZINC000979274057    0.6100
     17 O17        -1.7845    3.5314   45.5022 O.2     1  ZINC000979274057   -0.5400
     18 C18        -0.4043    1.8427   44.6751 C.2     1  ZINC000979274057   -0.0600
     19 C19        -0.8828    0.9260   43.7852 C.2     1  ZINC000979274057    0.0400
     20 N20         0.1525    0.5770   42.9857 N.pl3   1  ZINC000979274057   -0.4600
     21 C21         0.1050   -0.3836   41.8808 C.3     1  ZINC000979274057    0.0700
     22 C22         1.2433    1.2778   43.3916 C.2     1  ZINC000979274057    0.1900
     23 N23         0.9101    2.0362   44.3958 N.2     1  ZINC000979274057   -0.4600
     24 C24        -0.4751    0.7387   47.2928 C.3     1  ZINC000979274057    0.0500
     25 C25         0.3714    0.9795   48.5481 C.3     1  ZINC000979274057    0.0500
     26 O26        -0.4612    1.5047   49.5847 O.3     1  ZINC000979274057   -0.3600
     27 H27        -3.0146    4.9955   51.0296 H       1  ZINC000979274057    0.0600
     28 H28        -1.6163    5.3428   49.9845 H       1  ZINC000979274057    0.0700
     29 H29        -3.0767    4.5925   49.2969 H       1  ZINC000979274057    0.0600
     30 H30        -0.4059    2.5195   51.7288 H       1  ZINC000979274057    0.3500
     31 H31        -2.2591    4.4957   52.8747 H       1  ZINC000979274057    0.1000
     32 H32        -2.5619    2.7427   52.9318 H       1  ZINC000979274057    0.0600
     33 H33        -1.0403    2.4277   57.2156 H       1  ZINC000979274057    0.1700
     34 H34         1.3481    3.1066   57.0872 H       1  ZINC000979274057    0.1500
     35 H35         2.2207    3.9812   54.9296 H       1  ZINC000979274057    0.1700
     36 H36        -2.8264    2.0057   48.3229 H       1  ZINC000979274057    0.0700
     37 H37        -2.3063    3.6060   47.7345 H       1  ZINC000979274057    0.1000
     38 H38        -1.8938    0.5504   43.7294 H       1  ZINC000979274057    0.1900
     39 H39        -0.1521    0.1364   40.9579 H       1  ZINC000979274057    0.0800
     40 H40         1.0797   -0.8591   41.7704 H       1  ZINC000979274057    0.0900
     41 H41        -0.6479   -1.1431   42.0916 H       1  ZINC000979274057    0.0900
     42 H42         2.2269    1.2182   42.9499 H       1  ZINC000979274057    0.2100
     43 H43        -1.1842   -0.0683   47.4775 H       1  ZINC000979274057    0.0700
     44 H44         0.1736    0.4740   46.4578 H       1  ZINC000979274057    0.1500
     45 H45         0.8116    0.0379   48.8765 H       1  ZINC000979274057    0.1100
     46 H46         1.1635    1.6932   48.3215 H       1  ZINC000979274057    0.0500
@<TRIPOS>BOND
     1     1     2    1
     2     1    27    1
     3     1    28    1
     4     1    29    1
     5     2     3    1
     6     2     4    1
     7     2    12    1
     8     4     5    1
     9     4    30    1
    10     5     6    1
    11     5    31    1
    12     5    32    1
    13     6    11   ar
    14     6     7   ar
    15     7     8   ar
    16     8     9   ar
    17     8    33    1
    18     9    10   ar
    19     9    34    1
    20    10    11   ar
    21    10    35    1
    22    12    13    1
    23    12    26    1
    24    12    14    1
    25    14    15    1
    26    14    36    1
    27    14    37    1
    28    15    16   am
    29    15    24    1
    30    16    17    2
    31    16    18    1
    32    18    23    1
    33    18    19    2
    34    19    20    1
    35    19    38    1
    36    20    21    1
    37    20    22    1
    38    21    39    1
    39    21    40    1
    40    21    41    1
    41    22    23    2
    42    22    42    1
    43    24    25    1
    44    24    43    1
    45    24    44    1
    46    25    26    1
    47    25    45    1
    48    25    46    1
@<TRIPOS>SUBSTRUCTURE
     1 ZINC000979274057        1 TEMP              0 ****  ****    0 ROOT


##########                                Name:    ZINC000156038173
##########                DOCK_Rotatable_Bonds:                  10
##########                         Heavy_Atoms:                  27
##########                    Molecular_Weight:             396.357
##########                DOCK_Rotatable_Bonds:                  10
##########                       Formal_Charge:         -0.00999981
##########                     HBond_Acceptors:                  10
##########                        HBond_Donors:                   1
##########                         Heavy_Atoms:                  27
##########                          Grid_Score:          -29.307055
##########                     Grid_vdw_energy:          -29.756500
##########                      Grid_es_energy:            0.449445
##########           Internal_energy_repulsive:           36.380547

@<TRIPOS>MOLECULE
ZINC000156038173
 48 48 1 0 0
SMALL
USER_CHARGES


@<TRIPOS>ATOM
      1 C1         -0.8427    5.4671   48.8509 C.3     1  ZINC000156038173    0.0700
      2 N2         -1.8312    4.4774   49.2860 N.am    1  ZINC000156038173   -0.6300
      3 C3         -2.7419    4.7885   50.3908 C.3     1  ZINC000156038173    0.1500
      4 C4         -2.1242    4.3173   51.7089 C.3     1  ZINC000156038173   -0.1400
      5 C5         -3.2124    4.1283   52.7342 C.2     1  ZINC000156038173    0.4700
      6 O6         -4.2750    4.6868   52.5973 O.2     1  ZINC000156038173   -0.5000
      7 O7         -3.0011    3.3396   53.7996 O.3     1  ZINC000156038173   -0.3500
      8 C8         -3.9249    3.4726   54.9118 C.3     1  ZINC000156038173    0.1200
      9 C9         -4.0004    4.9397   55.3396 C.3     1  ZINC000156038173   -0.1800
     10 C10        -5.3133    2.9949   54.4815 C.3     1  ZINC000156038173   -0.1400
     11 C11        -3.4347    2.6235   56.0863 C.3     1  ZINC000156038173   -0.1800
     12 C12        -1.9030    3.2808   48.6701 C.2     1  ZINC000156038173    0.7100
     13 O13        -2.7245    2.4599   49.0303 O.2     1  ZINC000156038173   -0.5700
     14 N14        -1.0642    2.9941   47.6549 N.am    1  ZINC000156038173   -0.7400
     15 C15        -1.1433    1.6940   46.9842 C.3     1  ZINC000156038173    0.1700
     16 H16        -2.1300    1.2604   47.1474 H       1  ZINC000156038173    0.1500
     17 C17        -0.0910    0.7736   47.5468 C.ar    1  ZINC000156038173   -0.1300
     18 C18         1.1977    1.2342   47.7408 C.ar    1  ZINC000156038173   -0.0700
     19 C19         2.1643    0.3910   48.2568 C.ar    1  ZINC000156038173   -0.1000
     20 C20         1.8441   -0.9142   48.5797 C.ar    1  ZINC000156038173   -0.1100
     21 C21         0.5545   -1.3784   48.3865 C.ar    1  ZINC000156038173    0.0700
     22 F22         0.2407   -2.6540   48.7019 F       1  ZINC000156038173   -0.1200
     23 C23        -0.4163   -0.5312   47.8745 C.ar    1  ZINC000156038173    0.1000
     24 F24        -1.6756   -0.9821   47.6850 F       1  ZINC000156038173   -0.1200
     25 C25        -0.9095    1.8792   45.4836 C.3     1  ZINC000156038173    0.4500
     26 F26        -0.1206    0.8292   45.0016 F       1  ZINC000156038173   -0.1700
     27 F27        -2.1394    1.8825   44.8169 F       1  ZINC000156038173   -0.1600
     28 F28        -0.2547    3.0952   45.2602 F       1  ZINC000156038173   -0.1700
     29 H29         0.0818    5.3279   49.4112 H       1  ZINC000156038173    0.0600
     30 H30        -0.6451    5.3397   47.7866 H       1  ZINC000156038173    0.0700
     31 H31        -1.2292    6.4702   49.0311 H       1  ZINC000156038173    0.0800
     32 H32        -2.9087    5.8649   50.4320 H       1  ZINC000156038173    0.1000
     33 H33        -3.6925    4.2792   50.2323 H       1  ZINC000156038173    0.0900
     34 H34        -1.6066    3.3714   51.5499 H       1  ZINC000156038173    0.1100
     35 H35        -1.4149    5.0643   52.0653 H       1  ZINC000156038173    0.1100
     36 H36        -4.3496    5.5446   54.5028 H       1  ZINC000156038173    0.0600
     37 H37        -4.6940    5.0394   56.1745 H       1  ZINC000156038173    0.0700
     38 H38        -3.0113    5.2800   55.6461 H       1  ZINC000156038173    0.0800
     39 H39        -5.2596    1.9497   54.1767 H       1  ZINC000156038173    0.0700
     40 H40        -6.0068    3.0947   55.3164 H       1  ZINC000156038173    0.0800
     41 H41        -5.6625    3.5998   53.6447 H       1  ZINC000156038173    0.0700
     42 H42        -2.4457    2.9638   56.3929 H       1  ZINC000156038173    0.0800
     43 H43        -4.1283    2.7232   56.9213 H       1  ZINC000156038173    0.0700
     44 H44        -3.3810    1.5783   55.7816 H       1  ZINC000156038173    0.0600
     45 H45        -0.4080    3.6485   47.3684 H       1  ZINC000156038173    0.4100
     46 H46         1.4498    2.2536   47.4888 H       1  ZINC000156038173    0.1400
     47 H47         3.1708    0.7525   48.4074 H       1  ZINC000156038173    0.1500
     48 H48         2.6002   -1.5719   48.9823 H       1  ZINC000156038173    0.1500
@<TRIPOS>BOND
     1     1     2    1
     2     1    29    1
     3     1    30    1
     4     1    31    1
     5     2     3    1
     6     2    12   am
     7     3     4    1
     8     3    32    1
     9     3    33    1
    10     4     5    1
    11     4    34    1
    12     4    35    1
    13     5     6    2
    14     5     7    1
    15     7     8    1
    16     8     9    1
    17     8    10    1
    18     8    11    1
    19     9    36    1
    20     9    37    1
    21     9    38    1
    22    10    39    1
    23    10    40    1
    24    10    41    1
    25    11    42    1
    26    11    43    1
    27    11    44    1
    28    12    13    2
    29    12    14   am
    30    14    15    1
    31    14    45    1
    32    15    16    1
    33    15    17    1
    34    15    25    1
    35    17    23   ar
    36    17    18   ar
    37    18    19   ar
    38    18    46    1
    39    19    20   ar
    40    19    47    1
    41    20    21   ar
    42    20    48    1
    43    21    22    1
    44    21    23   ar
    45    23    24    1
    46    25    26    1
    47    25    27    1
    48    25    28    1
@<TRIPOS>SUBSTRUCTURE
     1 ZINC000156038173        1 TEMP              0 ****  ****    0 ROOT


##########                                Name:    ZINC001271977984
##########                DOCK_Rotatable_Bonds:                   7
##########                         Heavy_Atoms:                  24
##########                    Molecular_Weight:             328.371
##########                DOCK_Rotatable_Bonds:                   7
##########                       Formal_Charge:           0.0200001
##########                     HBond_Acceptors:                   7
##########                        HBond_Donors:                   0
##########                         Heavy_Atoms:                  24
##########                          Grid_Score:          -29.299273
##########                     Grid_vdw_energy:          -28.239838
##########                      Grid_es_energy:           -1.059435
##########           Internal_energy_repulsive:           25.597298

@<TRIPOS>MOLECULE
ZINC001271977984
 44 46 1 0 0
SMALL
USER_CHARGES


@<TRIPOS>ATOM
      1 C1         -1.8446    3.0996   46.2012 C.3     1  ZINC001271977984   -0.1800
      2 C2         -1.6190    1.5864   46.1872 C.3     1  ZINC001271977984    0.1700
      3 H3         -2.5774    1.0771   46.0864 H       1  ZINC001271977984    0.1100
      4 C4         -0.7315    1.2215   45.0253 C.2     1  ZINC001271977984    0.2700
      5 N5         -1.0996    0.5044   44.0065 N.2     1  ZINC001271977984   -0.4700
      6 C6         -0.0454    0.3778   43.1556 C.ar    1  ZINC001271977984    0.0200
      7 C7          0.1361   -0.2677   41.9318 C.ar    1  ZINC001271977984   -0.0600
      8 C8          1.3597   -0.2076   41.3028 C.ar    1  ZINC001271977984   -0.1200
      9 C9          2.4114    0.4899   41.8779 C.ar    1  ZINC001271977984   -0.0900
     10 C10         2.2464    1.1324   43.0875 C.ar    1  ZINC001271977984   -0.0900
     11 C11         1.0214    1.0827   43.7343 C.ar    1  ZINC001271977984    0.0100
     12 O12         0.5507    1.5958   44.8923 O.3     1  ZINC001271977984   -0.2100
     13 N13        -0.9760    1.1756   47.4426 N.3     1  ZINC001271977984   -0.5300
     14 C14        -1.9155    1.2629   48.5684 C.3     1  ZINC001271977984    0.0000
     15 C15        -0.4150   -0.1773   47.3287 C.3     1  ZINC001271977984    0.0400
     16 C16         0.7035   -0.3538   48.3575 C.3     1  ZINC001271977984    0.1200
     17 N17         1.7690    0.6160   48.0916 N.am    1  ZINC001271977984   -0.6000
     18 C18         2.8445    0.2838   47.1538 C.3     1  ZINC001271977984    0.0800
     19 C19         1.7599    1.8136   48.7097 C.2     1  ZINC001271977984    0.6000
     20 O20         0.8672    2.0892   49.4882 O.2     1  ZINC001271977984   -0.5300
     21 C21         2.8320    2.7893   48.4422 C.2     1  ZINC001271977984   -0.0800
     22 C22         3.2382    3.2294   47.2201 C.2     1  ZINC001271977984    0.0200
     23 O23         4.2326    4.1066   47.4307 O.3     1  ZINC001271977984   -0.2000
     24 C24         4.4332    4.2035   48.7526 C.2     1  ZINC001271977984    0.1800
     25 N25         3.5978    3.4237   49.3709 N.2     1  ZINC001271977984   -0.4600
     26 H26        -2.4865    3.3636   47.0416 H       1  ZINC001271977984    0.0800
     27 H27        -0.8862    3.6089   46.3020 H       1  ZINC001271977984    0.0800
     28 H28        -2.3218    3.4045   45.2698 H       1  ZINC001271977984    0.0700
     29 H29        -0.6797   -0.8125   41.4799 H       1  ZINC001271977984    0.1400
     30 H30         1.5014   -0.7071   40.3557 H       1  ZINC001271977984    0.1400
     31 H31         3.3665    0.5301   41.3753 H       1  ZINC001271977984    0.1400
     32 H32         3.0699    1.6737   43.5293 H       1  ZINC001271977984    0.1400
     33 H33        -2.7677    0.6093   48.3820 H       1  ZINC001271977984    0.0300
     34 H34        -1.4137    0.9533   49.4851 H       1  ZINC001271977984    0.0700
     35 H35        -2.2623    2.2910   48.6734 H       1  ZINC001271977984    0.1100
     36 H36        -1.1985   -0.9122   47.5139 H       1  ZINC001271977984    0.0500
     37 H37        -0.0124   -0.3204   46.3259 H       1  ZINC001271977984    0.0800
     38 H38         0.3052   -0.1906   49.3588 H       1  ZINC001271977984    0.0900
     39 H39         1.1061   -1.3643   48.2867 H       1  ZINC001271977984    0.0900
     40 H40         2.6009    0.6781   46.1672 H       1  ZINC001271977984    0.0600
     41 H41         3.7786    0.7253   47.5011 H       1  ZINC001271977984    0.0900
     42 H42         2.9541   -0.7992   47.0954 H       1  ZINC001271977984    0.0700
     43 H43         2.8373    2.9299   46.2632 H       1  ZINC001271977984    0.2300
     44 H44         5.1705    4.8330   49.2286 H       1  ZINC001271977984    0.2600
@<TRIPOS>BOND
     1     1     2    1
     2     1    26    1
     3     1    27    1
     4     1    28    1
     5     2     3    1
     6     2     4    1
     7     2    13    1
     8     4    12    1
     9     4     5    2
    10     5     6    1
    11     6    11   ar
    12     6     7   ar
    13     7     8   ar
    14     7    29    1
    15     8     9   ar
    16     8    30    1
    17     9    10   ar
    18     9    31    1
    19    10    11   ar
    20    10    32    1
    21    11    12    1
    22    13    14    1
    23    13    15    1
    24    14    33    1
    25    14    34    1
    26    14    35    1
    27    15    16    1
    28    15    36    1
    29    15    37    1
    30    16    17    1
    31    16    38    1
    32    16    39    1
    33    17    18    1
    34    17    19   am
    35    18    40    1
    36    18    41    1
    37    18    42    1
    38    19    20    2
    39    19    21    1
    40    21    25    1
    41    21    22    2
    42    22    23    1
    43    22    43    1
    44    23    24    1
    45    24    25    2
    46    24    44    1
@<TRIPOS>SUBSTRUCTURE
     1 ZINC001271977984        1 TEMP              0 ****  ****    0 ROOT


##########                                Name:    ZINC000753658424
##########                DOCK_Rotatable_Bonds:                   8
##########                         Heavy_Atoms:                  24
##########                    Molecular_Weight:             332.399
##########                DOCK_Rotatable_Bonds:                   8
##########                       Formal_Charge:        -9.16421e-07
##########                     HBond_Acceptors:                   6
##########                        HBond_Donors:                   3
##########                         Heavy_Atoms:                  24
##########                          Grid_Score:          -29.294195
##########                     Grid_vdw_energy:          -28.815157
##########                      Grid_es_energy:           -0.479038
##########           Internal_energy_repulsive:           15.999606

@<TRIPOS>MOLECULE
ZINC000753658424
 48 49 1 0 0
SMALL
USER_CHARGES


@<TRIPOS>ATOM
      1 C1        -15.2758   -3.2875   58.8856 C.3     1  ZINC000753658424   -0.2000
      2 C2        -14.4512   -2.0263   58.8633 C.2     1  ZINC000753658424    0.4400
      3 O3        -14.6836   -1.1639   58.0422 O.2     1  ZINC000753658424   -0.4500
      4 C4        -13.3680   -1.8413   59.8340 C.2     1  ZINC000753658424   -0.2500
      5 C5        -13.5080   -1.5142   61.1738 C.2     1  ZINC000753658424    0.1000
      6 C6        -14.8116   -1.2844   61.8941 C.3     1  ZINC000753658424   -0.1000
      7 N7        -12.2855   -1.4378   61.7196 N.pl3   1  ZINC000753658424   -0.5300
      8 C8        -11.3383   -1.7106   60.7561 C.2     1  ZINC000753658424   -0.0600
      9 C9         -9.8843   -1.7261   60.9609 C.2     1  ZINC000753658424    0.5900
     10 O10        -9.2306   -2.6899   60.6085 O.2     1  ZINC000753658424   -0.5200
     11 N11        -9.2739   -0.6728   61.5392 N.am    1  ZINC000753658424   -0.7300
     12 C12        -7.8235   -0.6890   61.7450 C.3     1  ZINC000753658424    0.0900
     13 C13        -7.4346    0.4221   62.7222 C.3     1  ZINC000753658424    0.1900
     14 H14        -7.6593    1.3918   62.2781 H       1  ZINC000753658424    0.1300
     15 O15        -6.0362    0.3401   63.0046 O.3     1  ZINC000753658424   -0.5500
     16 C16        -8.2155    0.2624   64.0011 C.2     1  ZINC000753658424   -0.0600
     17 C17        -9.3976    0.8413   64.2785 C.2     1  ZINC000753658424   -0.1800
     18 C18        -9.7648    0.4209   65.5775 C.2     1  ZINC000753658424   -0.2100
     19 C19        -8.7852   -0.3898   66.0162 C.2     1  ZINC000753658424    0.0000
     20 C20        -8.7448   -1.0784   67.3560 C.3     1  ZINC000753658424   -0.0800
     21 O21        -7.8523   -0.4868   65.0549 O.3     1  ZINC000753658424   -0.1700
     22 C22       -11.9807   -1.9690   59.5827 C.2     1  ZINC000753658424   -0.0100
     23 C23       -11.3364   -2.3157   58.2652 C.3     1  ZINC000753658424   -0.0500
     24 C24       -12.0617   -3.5098   57.6414 C.3     1  ZINC000753658424   -0.1500
     25 C25       -11.4264   -1.1146   57.3218 C.3     1  ZINC000753658424   -0.1500
     26 H26       -16.0763   -3.2112   58.1497 H       1  ZINC000753658424    0.0800
     27 H27       -14.6414   -4.1405   58.6451 H       1  ZINC000753658424    0.1000
     28 H28       -15.7060   -3.4228   59.8778 H       1  ZINC000753658424    0.0900
     29 H29       -15.1259   -2.2079   62.3802 H       1  ZINC000753658424    0.0900
     30 H30       -14.6793   -0.5053   62.6450 H       1  ZINC000753658424    0.0800
     31 H31       -15.5724   -0.9734   61.1782 H       1  ZINC000753658424    0.0900
     32 H32       -12.0972   -1.2241   62.6469 H       1  ZINC000753658424    0.4200
     33 H33        -9.7949    0.0961   61.8190 H       1  ZINC000753658424    0.4000
     34 H34        -7.5255   -1.6540   62.1549 H       1  ZINC000753658424    0.0900
     35 H35        -7.3194   -0.5277   60.7922 H       1  ZINC000753658424    0.0800
     36 H36        -5.7744   -0.4699   63.4634 H       1  ZINC000753658424    0.3900
     37 H37        -9.9583    1.5012   63.6331 H       1  ZINC000753658424    0.1500
     38 H38       -10.6599    0.6978   66.1146 H       1  ZINC000753658424    0.1500
     39 H39        -9.2252   -2.0537   67.2779 H       1  ZINC000753658424    0.0800
     40 H40        -7.7082   -1.2079   67.6670 H       1  ZINC000753658424    0.0800
     41 H41        -9.2720   -0.4717   68.0923 H       1  ZINC000753658424    0.0900
     42 H42       -10.2896   -2.5716   58.4289 H       1  ZINC000753658424    0.1100
     43 H43       -13.0751   -3.2165   57.3674 H       1  ZINC000753658424    0.0500
     44 H44       -11.5246   -3.8363   56.7509 H       1  ZINC000753658424    0.0600
     45 H45       -12.1020   -4.3271   58.3615 H       1  ZINC000753658424    0.0600
     46 H46       -10.8431   -0.2885   57.7286 H       1  ZINC000753658424    0.0500
     47 H47       -11.0322   -1.3905   56.3437 H       1  ZINC000753658424    0.0600
     48 H48       -12.4677   -0.8090   57.2209 H       1  ZINC000753658424    0.0600
@<TRIPOS>BOND
     1     1     2    1
     2     1    26    1
     3     1    27    1
     4     1    28    1
     5     2     3    2
     6     2     4    1
     7     4    22    1
     8     4     5    2
     9     5     6    1
    10     5     7    1
    11     6    29    1
    12     6    30    1
    13     6    31    1
    14     7     8    1
    15     7    32    1
    16     8     9    1
    17     8    22    2
    18     9    10    2
    19     9    11   am
    20    11    12    1
    21    11    33    1
    22    12    13    1
    23    12    34    1
    24    12    35    1
    25    13    14    1
    26    13    15    1
    27    13    16    1
    28    15    36    1
    29    16    21    1
    30    16    17    2
    31    17    18    1
    32    17    37    1
    33    18    19    2
    34    18    38    1
    35    19    20    1
    36    19    21    1
    37    20    39    1
    38    20    40    1
    39    20    41    1
    40    22    23    1
    41    23    24    1
    42    23    25    1
    43    23    42    1
    44    24    43    1
    45    24    44    1
    46    24    45    1
    47    25    46    1
    48    25    47    1
    49    25    48    1
@<TRIPOS>SUBSTRUCTURE
     1 ZINC000753658424        1 TEMP              0 ****  ****    0 ROOT


##########                                Name:    ZINC000894043060
##########                DOCK_Rotatable_Bonds:                  11
##########                         Heavy_Atoms:                  26
##########                    Molecular_Weight:             396.812
##########                DOCK_Rotatable_Bonds:                  11
##########                       Formal_Charge:          -0.0199999
##########                     HBond_Acceptors:                   9
##########                        HBond_Donors:                   2
##########                         Heavy_Atoms:                  26
##########                          Grid_Score:          -29.284685
##########                     Grid_vdw_energy:          -27.872776
##########                      Grid_es_energy:           -1.411909
##########           Internal_energy_repulsive:           24.301506

@<TRIPOS>MOLECULE
ZINC000894043060
 47 47 1 0 0
SMALL
USER_CHARGES


@<TRIPOS>ATOM
      1 C1         -1.2653    4.9022   51.7852 C.3     1  ZINC000894043060   -0.1700
      2 C2         -2.5510    4.0744   51.7311 C.3     1  ZINC000894043060    0.1000
      3 H3         -2.7229    3.6064   52.7004 H       1  ZINC000894043060    0.1100
      4 N4         -2.4213    3.0374   50.7044 N.am    1  ZINC000894043060   -0.7300
      5 C5         -2.3868    3.3798   49.4014 C.2     1  ZINC000894043060    0.5200
      6 O6         -2.4646    4.5463   49.0786 O.2     1  ZINC000894043060   -0.5200
      7 C7         -2.2516    2.3131   48.3454 C.3     1  ZINC000894043060   -0.1400
      8 C8         -0.7693    2.0288   48.0946 C.3     1  ZINC000894043060   -0.0200
      9 C9         -0.2740    0.9832   49.0957 C.3     1  ZINC000894043060   -0.1400
     10 C10         1.1420    0.5942   48.7566 C.2     1  ZINC000894043060    0.5200
     11 O11         1.4203   -0.5694   48.5582 O.2     1  ZINC000894043060   -0.5200
     12 N12         2.0991    1.5397   48.6739 N.am    1  ZINC000894043060   -0.7300
     13 C13         3.4752    1.1618   48.3426 C.3     1  ZINC000894043060    0.1000
     14 H14         3.7061    0.1974   48.7951 H       1  ZINC000894043060    0.1200
     15 C15         3.6247    1.0612   46.8233 C.3     1  ZINC000894043060   -0.1700
     16 C16         4.4386    2.2214   48.8809 C.3     1  ZINC000894043060    0.2600
     17 F17         4.3019    2.3134   50.2702 F       1  ZINC000894043060   -0.1900
     18 F18         5.7527    1.8607   48.5645 F       1  ZINC000894043060   -0.2000
     19 C19        -0.5880    1.5073   46.6924 C.ar    1  ZINC000894043060   -0.0600
     20 C20         0.3292    2.1030   45.8468 C.ar    1  ZINC000894043060   -0.1200
     21 C21         0.4959    1.6251   44.5606 C.ar    1  ZINC000894043060   -0.1200
     22 C22        -0.2555    0.5503   44.1195 C.ar    1  ZINC000894043060   -0.0400
     23 Cl23       -0.0464   -0.0507   42.5044 Cl      1  ZINC000894043060   -0.0800
     24 C24        -1.1733   -0.0454   44.9663 C.ar    1  ZINC000894043060   -0.1100
     25 C25        -1.3351    0.4298   46.2540 C.ar    1  ZINC000894043060   -0.0400
     26 C26        -3.7307    4.9865   51.3887 C.3     1  ZINC000894043060    0.2600
     27 F27        -4.5231    5.1710   52.5267 F       1  ZINC000894043060   -0.2000
     28 F28        -3.2506    6.2247   50.9489 F       1  ZINC000894043060   -0.1900
     29 H29        -1.0934    5.3701   50.8159 H       1  ZINC000894043060    0.0600
     30 H30        -1.3618    5.6736   52.5491 H       1  ZINC000894043060    0.0800
     31 H31        -0.4249    4.2524   52.0292 H       1  ZINC000894043060    0.0800
     32 H32        -2.3603    2.1044   50.9626 H       1  ZINC000894043060    0.4000
     33 H33        -2.7440    1.4018   48.6844 H       1  ZINC000894043060    0.1000
     34 H34        -2.7172    2.6556   47.4213 H       1  ZINC000894043060    0.1000
     35 H35        -0.1971    2.9485   48.2169 H       1  ZINC000894043060    0.1000
     36 H36        -0.3050    1.4005   50.1022 H       1  ZINC000894043060    0.1000
     37 H37        -0.9141    0.1024   49.0477 H       1  ZINC000894043060    0.1000
     38 H38         1.8767    2.4702   48.8338 H       1  ZINC000894043060    0.4000
     39 H39         3.3937    2.0257   46.3709 H       1  ZINC000894043060    0.0700
     40 H40         4.6486    0.7801   46.5767 H       1  ZINC000894043060    0.0800
     41 H41         2.9383    0.3063   46.4398 H       1  ZINC000894043060    0.0700
     42 H42         4.2076    3.1858   48.4285 H       1  ZINC000894043060    0.1200
     43 H43         0.9153    2.9421   46.1911 H       1  ZINC000894043060    0.1200
     44 H44         1.2121    2.0908   43.9000 H       1  ZINC000894043060    0.1300
     45 H45        -1.7603   -0.8841   44.6223 H       1  ZINC000894043060    0.1300
     46 H46        -2.0512   -0.0354   46.9152 H       1  ZINC000894043060    0.1300
     47 H47        -4.3279    4.5277   50.6007 H       1  ZINC000894043060    0.1100
@<TRIPOS>BOND
     1     1     2    1
     2     1    29    1
     3     1    30    1
     4     1    31    1
     5     2     3    1
     6     2     4    1
     7     2    26    1
     8     4     5   am
     9     4    32    1
    10     5     6    2
    11     5     7    1
    12     7     8    1
    13     7    33    1
    14     7    34    1
    15     8     9    1
    16     8    19    1
    17     8    35    1
    18     9    10    1
    19     9    36    1
    20     9    37    1
    21    10    11    2
    22    10    12   am
    23    12    13    1
    24    12    38    1
    25    13    14    1
    26    13    15    1
    27    13    16    1
    28    15    39    1
    29    15    40    1
    30    15    41    1
    31    16    17    1
    32    16    18    1
    33    16    42    1
    34    19    25   ar
    35    19    20   ar
    36    20    21   ar
    37    20    43    1
    38    21    22   ar
    39    21    44    1
    40    22    23    1
    41    22    24   ar
    42    24    25   ar
    43    24    45    1
    44    25    46    1
    45    26    27    1
    46    26    28    1
    47    26    47    1
@<TRIPOS>SUBSTRUCTURE
     1 ZINC000894043060        1 TEMP              0 ****  ****    0 ROOT


##########                                Name:    ZINC000945148121
##########                DOCK_Rotatable_Bonds:                   6
##########                         Heavy_Atoms:                  24
##########                    Molecular_Weight:             332.446
##########                DOCK_Rotatable_Bonds:                   6
##########                       Formal_Charge:           0.0100009
##########                     HBond_Acceptors:                   6
##########                        HBond_Donors:                   2
##########                         Heavy_Atoms:                  24
##########                          Grid_Score:          -29.258629
##########                     Grid_vdw_energy:          -27.811590
##########                      Grid_es_energy:           -1.447038
##########           Internal_energy_repulsive:           18.648256

@<TRIPOS>MOLECULE
ZINC000945148121
 52 54 1 0 0
SMALL
USER_CHARGES


@<TRIPOS>ATOM
      1 O1         -4.8374    5.5339   53.0063 O.2     1  ZINC000945148121   -0.5100
      2 C2         -3.9765    5.0999   53.7421 C.2     1  ZINC000945148121    0.5200
      3 C3         -4.2999    4.7940   55.1819 C.3     1  ZINC000945148121   -0.0500
      4 C4         -3.5016    3.5980   55.6329 C.2     1  ZINC000945148121    0.0100
      5 C5         -3.8853    2.3103   55.5420 C.2     1  ZINC000945148121   -0.0500
      6 N6         -2.8689    1.5564   56.0635 N.pl3   1  ZINC000945148121   -0.5700
      7 C7         -1.8985    2.4102   56.4551 C.2     1  ZINC000945148121    0.1800
      8 N8         -2.2818    3.6292   56.1898 N.2     1  ZINC000945148121   -0.4700
      9 N9         -2.7321    4.8858   53.2709 N.am    1  ZINC000945148121   -0.7300
     10 C10        -2.4177    5.1832   51.8713 C.3     1  ZINC000945148121    0.1500
     11 C11        -0.9207    5.4707   51.7350 C.3     1  ZINC000945148121   -0.1400
     12 C12        -0.6016    5.8150   50.2768 C.3     1  ZINC000945148121    0.1100
     13 N13        -1.0880    4.7275   49.4167 N.am    1  ZINC000945148121   -0.6100
     14 C14        -0.2620    4.1246   48.5389 C.2     1  ZINC000945148121    0.5200
     15 O15         0.8952    4.4775   48.4543 O.2     1  ZINC000945148121   -0.5400
     16 C16        -0.7764    3.0118   47.6624 C.3     1  ZINC000945148121   -0.1000
     17 C17         0.1345    2.8395   46.4773 C.3     1  ZINC000945148121   -0.1200
     18 C18        -0.6258    2.4165   45.2059 C.3     1  ZINC000945148121   -0.1200
     19 C19        -1.7073    1.3546   45.4819 C.3     1  ZINC000945148121   -0.1200
     20 C20        -1.2421    0.2957   46.4446 C.3     1  ZINC000945148121   -0.1200
     21 C21        -1.6818    0.6993   47.8668 C.3     1  ZINC000945148121   -0.1200
     22 C22        -0.7977    1.6917   48.4600 C.3     1  ZINC000945148121   -0.1000
     23 C23        -2.4919    4.3095   49.5323 C.3     1  ZINC000945148121    0.1100
     24 C24        -2.7896    3.9820   50.9989 C.3     1  ZINC000945148121   -0.1400
     25 H25        -4.0472    5.6542   55.8018 H       1  ZINC000945148121    0.1000
     26 H26        -5.3639    4.5775   55.2772 H       1  ZINC000945148121    0.1000
     27 H27        -4.8164    1.9432   55.1361 H       1  ZINC000945148121    0.1800
     28 H28        -2.8491    0.5895   56.1378 H       1  ZINC000945148121    0.4200
     29 H29        -0.9593    2.1303   56.9087 H       1  ZINC000945148121    0.2100
     30 H30        -2.0447    4.5349   53.8585 H       1  ZINC000945148121    0.4000
     31 H31        -2.9856    6.0559   51.5490 H       1  ZINC000945148121    0.0900
     32 H32        -0.6520    6.3115   52.3745 H       1  ZINC000945148121    0.0800
     33 H33        -0.3524    4.5898   52.0334 H       1  ZINC000945148121    0.0700
     34 H34        -1.0982    6.7463   50.0041 H       1  ZINC000945148121    0.0700
     35 H35         0.4760    5.9236   50.1542 H       1  ZINC000945148121    0.1000
     36 H36        -1.7841    3.2501   47.3218 H       1  ZINC000945148121    0.1000
     37 H37         0.6455    3.7830   46.2851 H       1  ZINC000945148121    0.0700
     38 H38         0.8791    2.0790   46.7123 H       1  ZINC000945148121    0.0700
     39 H39        -1.1000    3.2962   44.7707 H       1  ZINC000945148121    0.0600
     40 H40         0.0877    2.0129   44.4874 H       1  ZINC000945148121    0.0700
     41 H41        -2.5869    1.8467   45.8971 H       1  ZINC000945148121    0.0600
     42 H42        -1.9831    0.8789   44.5408 H       1  ZINC000945148121    0.0600
     43 H43        -1.6909   -0.6619   46.1805 H       1  ZINC000945148121    0.0600
     44 H44        -0.1556    0.2172   46.4055 H       1  ZINC000945148121    0.0700
     45 H45        -2.6912    1.1079   47.8216 H       1  ZINC000945148121    0.0600
     46 H46        -1.6903   -0.1886   48.4990 H       1  ZINC000945148121    0.0600
     47 H47         0.2132    1.2861   48.4983 H       1  ZINC000945148121    0.0700
     48 H48        -1.1316    1.8991   49.4768 H       1  ZINC000945148121    0.0700
     49 H49        -3.1424    5.1180   49.1989 H       1  ZINC000945148121    0.0700
     50 H50        -2.6613    3.4247   48.9187 H       1  ZINC000945148121    0.1000
     51 H51        -2.2037    3.1152   51.3043 H       1  ZINC000945148121    0.0700
     52 H52        -3.8512    3.7633   51.1145 H       1  ZINC000945148121    0.0800
@<TRIPOS>BOND
     1     1     2    2
     2     2     3    1
     3     2     9   am
     4     3     4    1
     5     3    25    1
     6     3    26    1
     7     4     8    1
     8     4     5    2
     9     5     6    1
    10     5    27    1
    11     6     7    1
    12     6    28    1
    13     7     8    2
    14     7    29    1
    15     9    10    1
    16     9    30    1
    17    10    24    1
    18    10    11    1
    19    10    31    1
    20    11    12    1
    21    11    32    1
    22    11    33    1
    23    12    13    1
    24    12    34    1
    25    12    35    1
    26    13    14   am
    27    13    23    1
    28    14    15    2
    29    14    16    1
    30    16    22    1
    31    16    17    1
    32    16    36    1
    33    17    18    1
    34    17    37    1
    35    17    38    1
    36    18    19    1
    37    18    39    1
    38    18    40    1
    39    19    20    1
    40    19    41    1
    41    19    42    1
    42    20    21    1
    43    20    43    1
    44    20    44    1
    45    21    22    1
    46    21    45    1
    47    21    46    1
    48    22    47    1
    49    22    48    1
    50    23    24    1
    51    23    49    1
    52    23    50    1
    53    24    51    1
    54    24    52    1
@<TRIPOS>SUBSTRUCTURE
     1 ZINC000945148121        1 TEMP              0 ****  ****    0 ROOT


##########                                Name:    ZINC000245764166
##########                DOCK_Rotatable_Bonds:                   8
##########                         Heavy_Atoms:                  26
##########                    Molecular_Weight:             359.512
##########                DOCK_Rotatable_Bonds:                   8
##########                       Formal_Charge:          -0.0100008
##########                     HBond_Acceptors:                   5
##########                        HBond_Donors:                   2
##########                         Heavy_Atoms:                  26
##########                          Grid_Score:          -29.239706
##########                     Grid_vdw_energy:          -30.300035
##########                      Grid_es_energy:            1.060330
##########           Internal_energy_repulsive:           24.461597

@<TRIPOS>MOLECULE
ZINC000245764166
 59 61 1 0 0
SMALL
USER_CHARGES


@<TRIPOS>ATOM
      1 C1         -9.9315    1.1684   63.6508 C.3     1  ZINC000245764166    0.0200
      2 N2         -9.0987    0.2023   62.9221 N.3     1  ZINC000245764166   -0.5300
      3 C3         -8.4712   -0.7532   63.8447 C.3     1  ZINC000245764166    0.0600
      4 C4         -7.4171   -0.0474   64.6583 C.ar    1  ZINC000245764166   -0.0800
      5 C5         -7.2851   -0.3230   66.0065 C.ar    1  ZINC000245764166   -0.1000
      6 C6         -6.3183    0.3244   66.7529 C.ar    1  ZINC000245764166   -0.1200
      7 C7         -5.4831    1.2469   66.1510 C.ar    1  ZINC000245764166   -0.1200
      8 C8         -5.6145    1.5218   64.8026 C.ar    1  ZINC000245764166   -0.1200
      9 C9         -6.5785    0.8713   64.0554 C.ar    1  ZINC000245764166   -0.1200
     10 C10        -9.8806   -0.4958   61.8929 C.3     1  ZINC000245764166    0.0500
     11 C11        -9.3258   -0.1507   60.5094 C.3     1  ZINC000245764166    0.1900
     12 C12        -8.7642    1.2724   60.5256 C.3     1  ZINC000245764166   -0.1600
     13 C13        -8.2118   -1.1345   60.1466 C.3     1  ZINC000245764166   -0.1500
     14 N14       -10.3993   -0.2406   59.5165 N.am    1  ZINC000245764166   -0.7400
     15 C15       -11.1464   -1.3591   59.4313 C.2     1  ZINC000245764166    0.7000
     16 O16       -10.9306   -2.2929   60.1795 O.2     1  ZINC000245764166   -0.5800
     17 N17       -12.1329   -1.4425   58.5167 N.am    1  ZINC000245764166   -0.7500
     18 C18       -12.9439   -2.6590   58.4230 C.3     1  ZINC000245764166    0.1800
     19 H19       -13.0044   -3.1264   59.4058 H       1  ZINC000245764166    0.0900
     20 C20       -12.2844   -3.6284   57.4453 C.3     1  ZINC000245764166   -0.1300
     21 C21       -13.1108   -4.9185   57.4035 C.3     1  ZINC000245764166   -0.1100
     22 C22       -14.4986   -4.5836   56.8576 C.3     1  ZINC000245764166   -0.1100
     23 C23       -15.1962   -3.5574   57.7191 C.3     1  ZINC000245764166    0.0900
     24 H24       -16.1265   -3.2605   57.2349 H       1  ZINC000245764166    0.0600
     25 O25       -15.4909   -4.0378   59.0377 O.3     1  ZINC000245764166   -0.3600
     26 C26       -15.8044   -2.8739   59.8282 C.3     1  ZINC000245764166    0.0500
     27 C27       -15.0833   -1.6731   59.1828 C.3     1  ZINC000245764166   -0.1500
     28 C28       -14.3527   -2.2902   57.9532 C.3     1  ZINC000245764166   -0.1300
     29 H29       -14.3505   -1.6251   57.0896 H       1  ZINC000245764166    0.1000
     30 H30        -9.3239    1.6833   64.3950 H       1  ZINC000245764166    0.0800
     31 H31       -10.3416    1.8958   62.9503 H       1  ZINC000245764166    0.0700
     32 H32       -10.7470    0.6430   64.1480 H       1  ZINC000245764166    0.0200
     33 H33        -9.2286   -1.1658   64.5111 H       1  ZINC000245764166    0.0400
     34 H34        -8.0105   -1.5598   63.2746 H       1  ZINC000245764166    0.1100
     35 H35        -7.9376   -1.0438   66.4767 H       1  ZINC000245764166    0.1200
     36 H36        -6.2156    0.1096   67.8064 H       1  ZINC000245764166    0.1200
     37 H37        -4.7283    1.7531   66.7343 H       1  ZINC000245764166    0.1200
     38 H38        -4.9622    2.2428   64.3325 H       1  ZINC000245764166    0.1200
     39 H39        -6.6811    1.0860   63.0019 H       1  ZINC000245764166    0.1200
     40 H40        -9.8137   -1.5718   62.0532 H       1  ZINC000245764166    0.0400
     41 H41       -10.9232   -0.1834   61.9544 H       1  ZINC000245764166    0.1000
     42 H42        -7.9655    1.3393   61.2643 H       1  ZINC000245764166    0.0700
     43 H43        -8.3690    1.5183   59.5399 H       1  ZINC000245764166    0.0800
     44 H44        -9.5578    1.9734   60.7841 H       1  ZINC000245764166    0.0500
     45 H45        -8.6353   -2.1303   60.0144 H       1  ZINC000245764166    0.0600
     46 H46        -7.7341   -0.8169   59.2198 H       1  ZINC000245764166    0.0800
     47 H47        -7.4724   -1.1575   60.9471 H       1  ZINC000245764166    0.0600
     48 H48       -10.5724    0.5048   58.9204 H       1  ZINC000245764166    0.3900
     49 H49       -12.3060   -0.6971   57.9207 H       1  ZINC000245764166    0.3900
     50 H50       -12.2536   -3.1813   56.4517 H       1  ZINC000245764166    0.0600
     51 H51       -11.2718   -3.8532   57.7799 H       1  ZINC000245764166    0.0700
     52 H52       -12.6251   -5.6447   56.7516 H       1  ZINC000245764166    0.0700
     53 H53       -13.2010   -5.3296   58.4090 H       1  ZINC000245764166    0.0700
     54 H54       -14.3988   -4.1911   55.8457 H       1  ZINC000245764166    0.0800
     55 H55       -15.0995   -5.4927   56.8287 H       1  ZINC000245764166    0.0700
     56 H56       -16.8811   -2.7041   59.8267 H       1  ZINC000245764166    0.0600
     57 H57       -15.4506   -3.0133   60.8497 H       1  ZINC000245764166    0.0800
     58 H58       -15.8046   -0.9218   58.8610 H       1  ZINC000245764166    0.0800
     59 H59       -14.3637   -1.2406   59.8778 H       1  ZINC000245764166    0.0800
@<TRIPOS>BOND
     1     1     2    1
     2     1    30    1
     3     1    31    1
     4     1    32    1
     5     2     3    1
     6     2    10    1
     7     3     4    1
     8     3    33    1
     9     3    34    1
    10     4     9   ar
    11     4     5   ar
    12     5     6   ar
    13     5    35    1
    14     6     7   ar
    15     6    36    1
    16     7     8   ar
    17     7    37    1
    18     8     9   ar
    19     8    38    1
    20     9    39    1
    21    10    11    1
    22    10    40    1
    23    10    41    1
    24    11    12    1
    25    11    13    1
    26    11    14    1
    27    12    42    1
    28    12    43    1
    29    12    44    1
    30    13    45    1
    31    13    46    1
    32    13    47    1
    33    14    15   am
    34    14    48    1
    35    15    16    2
    36    15    17   am
    37    17    18    1
    38    17    49    1
    39    18    19    1
    40    18    28    1
    41    18    20    1
    42    20    21    1
    43    20    50    1
    44    20    51    1
    45    21    22    1
    46    21    52    1
    47    21    53    1
    48    22    23    1
    49    22    54    1
    50    22    55    1
    51    23    24    1
    52    23    28    1
    53    23    25    1
    54    25    26    1
    55    26    27    1
    56    26    56    1
    57    26    57    1
    58    27    28    1
    59    27    58    1
    60    27    59    1
    61    28    29    1
@<TRIPOS>SUBSTRUCTURE
     1 ZINC000245764166        1 TEMP              0 ****  ****    0 ROOT


##########                                Name:    ZINC000797321835
##########                DOCK_Rotatable_Bonds:                   4
##########                         Heavy_Atoms:                  22
##########                    Molecular_Weight:             381.253
##########                DOCK_Rotatable_Bonds:                   4
##########                       Formal_Charge:           0.0200001
##########                     HBond_Acceptors:                   7
##########                        HBond_Donors:                   1
##########                         Heavy_Atoms:                  22
##########                          Grid_Score:          -29.234240
##########                     Grid_vdw_energy:          -25.082178
##########                      Grid_es_energy:           -4.152061
##########           Internal_energy_repulsive:            7.549705

@<TRIPOS>MOLECULE
ZINC000797321835
 35 37 1 0 0
SMALL
USER_CHARGES


@<TRIPOS>ATOM
      1 C1         -8.1318    0.4470   66.5322 C.3     1  ZINC000797321835    0.1000
      2 N2         -6.8831    0.8631   65.8891 N.am    1  ZINC000797321835   -0.6000
      3 C3         -5.6582    0.6430   66.3972 C.2     1  ZINC000797321835    0.5200
      4 O4         -5.4329    0.0817   67.4484 O.2     1  ZINC000797321835   -0.5200
      5 C5         -4.6018    1.1968   65.4668 C.3     1  ZINC000797321835   -0.1500
      6 C6         -5.3487    1.4113   64.1299 C.3     1  ZINC000797321835   -0.1200
      7 C7         -6.8084    1.5686   64.6043 C.3     1  ZINC000797321835    0.1200
      8 H8         -7.0478    2.6226   64.7452 H       1  ZINC000797321835    0.1100
      9 C9         -7.7512    0.9496   63.6048 C.2     1  ZINC000797321835    0.4900
     10 O10        -8.8678    1.4014   63.4637 O.2     1  ZINC000797321835   -0.4400
     11 N11        -7.3534   -0.1064   62.8677 N.am    1  ZINC000797321835   -0.6500
     12 C12        -8.2259   -0.6793   61.9426 C.ar    1  ZINC000797321835    0.3000
     13 C13        -7.9021   -0.6798   60.5853 C.ar    1  ZINC000797321835   -0.1400
     14 C14        -8.7964   -1.2594   59.7038 C.ar    1  ZINC000797321835   -0.0800
     15 C15        -9.9727   -1.8101   60.2294 C.ar    1  ZINC000797321835    0.1100
     16 C16       -10.9610   -2.4415   59.3319 C.2     1  ZINC000797321835   -0.1400
     17 C17       -10.9808   -3.7459   58.9902 C.2     1  ZINC000797321835   -0.0900
     18 C18       -12.0029   -4.1028   58.1362 C.2     1  ZINC000797321835   -0.0900
     19 C19       -12.8166   -3.1033   57.7781 C.2     1  ZINC000797321835   -0.2000
     20 Br20      -14.3043   -3.2722   56.6229 Br      1  ZINC000797321835    0.0200
     21 S21       -12.2988   -1.6101   58.5493 S.3     1  ZINC000797321835    0.1900
     22 N22       -10.1951   -1.7625   61.5384 N.ar    1  ZINC000797321835   -0.1900
     23 N23        -9.3593   -1.2279   62.3527 N.ar    1  ZINC000797321835   -0.2200
     24 H24        -8.3946   -0.5573   66.1998 H       1  ZINC000797321835    0.0700
     25 H25        -8.0014    0.4489   67.6144 H       1  ZINC000797321835    0.0800
     26 H26        -8.9286    1.1396   66.2610 H       1  ZINC000797321835    0.0700
     27 H27        -4.2183    2.1441   65.8458 H       1  ZINC000797321835    0.1100
     28 H28        -3.7910    0.4793   65.3399 H       1  ZINC000797321835    0.1100
     29 H29        -4.9993    2.3139   63.6283 H       1  ZINC000797321835    0.1100
     30 H30        -5.2450    0.5415   63.4812 H       1  ZINC000797321835    0.0900
     31 H31        -6.4603   -0.4677   62.9804 H       1  ZINC000797321835    0.4200
     32 H32        -6.9804   -0.2404   60.2335 H       1  ZINC000797321835    0.1600
     33 H33        -8.5945   -1.2863   58.6432 H       1  ZINC000797321835    0.1500
     34 H34       -10.2531   -4.4550   59.3564 H       1  ZINC000797321835    0.1600
     35 H35       -12.1364   -5.1144   57.7824 H       1  ZINC000797321835    0.1600
@<TRIPOS>BOND
     1     1     2    1
     2     1    24    1
     3     1    25    1
     4     1    26    1
     5     2     7    1
     6     2     3   am
     7     3     4    2
     8     3     5    1
     9     5     6    1
    10     5    27    1
    11     5    28    1
    12     6     7    1
    13     6    29    1
    14     6    30    1
    15     7     8    1
    16     7     9    1
    17     9    10    2
    18     9    11   am
    19    11    12    1
    20    11    31    1
    21    12    23   ar
    22    12    13   ar
    23    13    14   ar
    24    13    32    1
    25    14    15   ar
    26    14    33    1
    27    15    16    1
    28    15    22   ar
    29    16    21    1
    30    16    17    2
    31    17    18    1
    32    17    34    1
    33    18    19    2
    34    18    35    1
    35    19    20    1
    36    19    21    1
    37    22    23   ar
@<TRIPOS>SUBSTRUCTURE
     1 ZINC000797321835        1 TEMP              0 ****  ****    0 ROOT


##########                                Name:    ZINC001009116151
##########                DOCK_Rotatable_Bonds:                   6
##########                         Heavy_Atoms:                  25
##########                    Molecular_Weight:             342.481
##########                DOCK_Rotatable_Bonds:                   6
##########                       Formal_Charge:           0.0600006
##########                     HBond_Acceptors:                   4
##########                        HBond_Donors:                   1
##########                         Heavy_Atoms:                  25
##########                          Grid_Score:          -29.226196
##########                     Grid_vdw_energy:          -28.348736
##########                      Grid_es_energy:           -0.877460
##########           Internal_energy_repulsive:           10.224962

@<TRIPOS>MOLECULE
ZINC001009116151
 55 59 1 0 0
SMALL
USER_CHARGES


@<TRIPOS>ATOM
      1 O1         -0.3693    3.2473   50.3065 O.2     1  ZINC001009116151   -0.5400
      2 C2         -1.2777    3.0789   49.5208 C.2     1  ZINC001009116151    0.5200
      3 N3         -2.4861    3.6254   49.7607 N.am    1  ZINC001009116151   -0.7300
      4 C4         -2.7040    4.4178   50.9734 C.3     1  ZINC001009116151    0.1500
      5 C5         -3.4247    3.5636   52.0183 C.3     1  ZINC001009116151   -0.1200
      6 H6         -3.3207    2.4854   51.8960 H       1  ZINC001009116151    0.1100
      7 C7         -4.7567    4.0866   52.5598 C.3     1  ZINC001009116151   -0.1700
      8 H8         -5.1832    5.0004   52.1462 H       1  ZINC001009116151    0.1200
      9 C9         -5.7251    3.0754   53.2105 C.3     1  ZINC001009116151    0.1300
     10 N10        -5.3036    3.0142   54.6295 N.am    1  ZINC001009116151   -0.6200
     11 C11        -6.0885    2.9388   55.7224 C.2     1  ZINC001009116151    0.5500
     12 O12        -7.2950    2.9128   55.6021 O.2     1  ZINC001009116151   -0.5300
     13 C13        -5.4668    2.8869   57.0943 C.3     1  ZINC001009116151   -0.1200
     14 C14        -5.4165    4.2935   57.7346 C.3     1  ZINC001009116151   -0.0900
     15 C15        -6.6835    4.3887   58.5526 C.2     1  ZINC001009116151   -0.1800
     16 C16        -7.2079    3.2092   58.7456 C.2     1  ZINC001009116151   -0.1500
     17 C17        -6.3783    2.1307   58.0885 C.3     1  ZINC001009116151   -0.0900
     18 C18        -3.8237    3.0546   54.5743 C.3     1  ZINC001009116151    0.1200
     19 C19        -3.4960    4.1077   53.4465 C.3     1  ZINC001009116151   -0.1600
     20 H20        -2.9837    5.0228   53.7433 H       1  ZINC001009116151    0.1300
     21 C21        -1.0536    2.2637   48.2733 C.3     1  ZINC001009116151   -0.0700
     22 C22        -1.9434    2.7972   47.1487 C.3     1  ZINC001009116151   -0.1100
     23 C23        -1.7159    1.9696   45.8822 C.3     1  ZINC001009116151   -0.1100
     24 C24        -0.6744    0.8844   46.1624 C.3     1  ZINC001009116151   -0.0900
     25 C25         0.6418    1.5382   46.5876 C.3     1  ZINC001009116151   -0.1100
     26 C26         0.4143    2.3658   47.8542 C.3     1  ZINC001009116151   -0.0900
     27 C27        -1.1767   -0.0271   47.2838 C.3     1  ZINC001009116151   -0.1100
     28 C28        -1.4042    0.8005   48.5504 C.3     1  ZINC001009116151   -0.1000
     29 H29        -3.2116    3.4940   49.1304 H       1  ZINC001009116151    0.4000
     30 H30        -1.7434    4.7448   51.3713 H       1  ZINC001009116151    0.0800
     31 H31        -3.3134    5.2892   50.7334 H       1  ZINC001009116151    0.0700
     32 H32        -6.7529    3.4303   53.1343 H       1  ZINC001009116151    0.0900
     33 H33        -5.6243    2.0966   52.7415 H       1  ZINC001009116151    0.0800
     34 H34        -4.4741    2.4385   57.0549 H       1  ZINC001009116151    0.1100
     35 H35        -4.5415    4.3869   58.3777 H       1  ZINC001009116151    0.0900
     36 H36        -5.4048    5.0622   56.9619 H       1  ZINC001009116151    0.0800
     37 H37        -7.1000    5.3115   58.9284 H       1  ZINC001009116151    0.1300
     38 H38        -8.1156    3.0278   59.3022 H       1  ZINC001009116151    0.1300
     39 H39        -7.0205    1.4288   57.5565 H       1  ZINC001009116151    0.0900
     40 H40        -5.7774    1.6077   58.8325 H       1  ZINC001009116151    0.0900
     41 H41        -3.4170    3.3938   55.5270 H       1  ZINC001009116151    0.0900
     42 H42        -3.4260    2.0726   54.3182 H       1  ZINC001009116151    0.0800
     43 H43        -2.9892    2.7244   47.4474 H       1  ZINC001009116151    0.0700
     44 H44        -1.6936    3.8397   46.9515 H       1  ZINC001009116151    0.0700
     45 H45        -2.6536    1.5037   45.5792 H       1  ZINC001009116151    0.0700
     46 H46        -1.3580    2.6190   45.0833 H       1  ZINC001009116151    0.0700
     47 H47        -0.5123    0.2948   45.2600 H       1  ZINC001009116151    0.0700
     48 H48         1.3838    0.7651   46.7872 H       1  ZINC001009116151    0.0700
     49 H49         0.9997    2.1877   45.7887 H       1  ZINC001009116151    0.0700
     50 H50         0.6641    3.4083   47.6567 H       1  ZINC001009116151    0.0700
     51 H51         1.0482    1.9858   48.6553 H       1  ZINC001009116151    0.0700
     52 H52        -2.1145   -0.4930   46.9809 H       1  ZINC001009116151    0.0700
     53 H53        -0.4347   -0.8003   47.4834 H       1  ZINC001009116151    0.0700
     54 H54        -0.7703    0.4203   49.3515 H       1  ZINC001009116151    0.0700
     55 H55        -2.4500    0.7276   48.8490 H       1  ZINC001009116151    0.0700
@<TRIPOS>BOND
     1     1     2    2
     2     2     3   am
     3     2    21    1
     4     3     4    1
     5     3    29    1
     6     4     5    1
     7     4    30    1
     8     4    31    1
     9     5     6    1
    10     5    19    1
    11     5     7    1
    12     7     8    1
    13     7    19    1
    14     7     9    1
    15     9    10    1
    16     9    32    1
    17     9    33    1
    18    10    11   am
    19    10    18    1
    20    11    12    2
    21    11    13    1
    22    13    17    1
    23    13    14    1
    24    13    34    1
    25    14    15    1
    26    14    35    1
    27    14    36    1
    28    15    16    2
    29    15    37    1
    30    16    17    1
    31    16    38    1
    32    17    39    1
    33    17    40    1
    34    18    19    1
    35    18    41    1
    36    18    42    1
    37    19    20    1
    38    21    26    1
    39    21    28    1
    40    21    22    1
    41    22    23    1
    42    22    43    1
    43    22    44    1
    44    23    24    1
    45    23    45    1
    46    23    46    1
    47    24    25    1
    48    24    27    1
    49    24    47    1
    50    25    26    1
    51    25    48    1
    52    25    49    1
    53    26    50    1
    54    26    51    1
    55    27    28    1
    56    27    52    1
    57    27    53    1
    58    28    54    1
    59    28    55    1
@<TRIPOS>SUBSTRUCTURE
     1 ZINC001009116151        1 TEMP              0 ****  ****    0 ROOT


##########                                Name:    ZINC000623581528
##########                DOCK_Rotatable_Bonds:                   5
##########                         Heavy_Atoms:                  26
##########                    Molecular_Weight:             355.369
##########                DOCK_Rotatable_Bonds:                   5
##########                       Formal_Charge:        -4.47035e-07
##########                     HBond_Acceptors:                   7
##########                        HBond_Donors:                   2
##########                         Heavy_Atoms:                  26
##########                          Grid_Score:          -29.203556
##########                     Grid_vdw_energy:          -28.068941
##########                      Grid_es_energy:           -1.134615
##########           Internal_energy_repulsive:            4.255296

@<TRIPOS>MOLECULE
ZINC000623581528
 44 47 1 0 0
SMALL
USER_CHARGES


@<TRIPOS>ATOM
      1 C1         -1.2764   -0.3796   48.0357 C.3     1  ZINC000623581528    0.1000
      2 N2         -1.2695    0.6648   47.0083 N.am    1  ZINC000623581528   -0.5500
      3 C3         -1.2238    0.4713   45.6753 C.2     1  ZINC000623581528    0.6300
      4 O4         -1.1811   -0.6117   45.1241 O.2     1  ZINC000623581528   -0.4800
      5 O5         -1.2327    1.6592   45.0505 O.3     1  ZINC000623581528   -0.2300
      6 C6         -1.2847    2.6487   45.9755 C.ar    1  ZINC000623581528    0.0400
      7 C7         -1.3145    4.0308   45.8805 C.ar    1  ZINC000623581528   -0.0800
      8 C8         -1.3681    4.7994   47.0273 C.ar    1  ZINC000623581528   -0.0900
      9 C9         -1.3918    4.1958   48.2721 C.ar    1  ZINC000623581528   -0.0900
     10 C10        -1.4502    5.0429   49.5171 C.3     1  ZINC000623581528    0.1800
     11 N11        -2.2617    4.3651   50.5312 N.am    1  ZINC000623581528   -0.7400
     12 C12        -2.1072    4.6732   51.8342 C.2     1  ZINC000623581528    0.7100
     13 O13        -1.2933    5.5125   52.1682 O.2     1  ZINC000623581528   -0.5800
     14 N14        -2.8549    4.0508   52.7669 N.am    1  ZINC000623581528   -0.7300
     15 C15        -2.6882    4.3870   54.1832 C.3     1  ZINC000623581528    0.2000
     16 H16        -2.4489    5.4444   54.2946 H       1  ZINC000623581528    0.1000
     17 C17        -1.5792    3.5177   54.8130 C.3     1  ZINC000623581528   -0.1300
     18 C18        -2.3753    2.3208   55.3750 C.3     1  ZINC000623581528   -0.0800
     19 C19        -3.7651    2.8588   55.6402 C.ar    1  ZINC000623581528   -0.1000
     20 C20        -4.7904    2.3494   56.4192 C.ar    1  ZINC000623581528   -0.0800
     21 C21        -5.9921    3.0233   56.5148 C.ar    1  ZINC000623581528   -0.1400
     22 C22        -6.1732    4.2123   55.8295 C.ar    1  ZINC000623581528    0.0900
     23 F23        -7.3473    4.8743   55.9213 F       1  ZINC000623581528   -0.1400
     24 C24        -5.1493    4.7219   55.0505 C.ar    1  ZINC000623581528   -0.1200
     25 C25        -3.9458    4.0488   54.9547 C.ar    1  ZINC000623581528   -0.0900
     26 C26        -1.3622    2.8183   48.3769 C.ar    1  ZINC000623581528   -0.0800
     27 C27        -1.3150    2.0407   47.2308 C.ar    1  ZINC000623581528    0.0700
     28 H28        -2.3047   -0.6669   48.2548 H       1  ZINC000623581528    0.0800
     29 H29        -0.7256   -1.2482   47.6745 H       1  ZINC000623581528    0.0900
     30 H30        -0.8039   -0.0009   48.9420 H       1  ZINC000623581528    0.0900
     31 H31        -1.2956    4.5066   44.9112 H       1  ZINC000623581528    0.1500
     32 H32        -1.3913    5.8765   46.9519 H       1  ZINC000623581528    0.1500
     33 H33        -0.4414    5.1948   49.9009 H       1  ZINC000623581528    0.0800
     34 H34        -1.8977    6.0080   49.2792 H       1  ZINC000623581528    0.0800
     35 H35        -2.9102    3.6947   50.2649 H       1  ZINC000623581528    0.4000
     36 H36        -3.5033    3.3804   52.5007 H       1  ZINC000623581528    0.4000
     37 H37        -0.8679    3.1884   54.0555 H       1  ZINC000623581528    0.0900
     38 H38        -1.0725    4.0563   55.6137 H       1  ZINC000623581528    0.0900
     39 H39        -2.4152    1.5152   54.6417 H       1  ZINC000623581528    0.0800
     40 H40        -1.9232    1.9675   56.3017 H       1  ZINC000623581528    0.0800
     41 H41        -4.6498    1.4219   56.9541 H       1  ZINC000623581528    0.1300
     42 H42        -6.7896    2.6230   57.1233 H       1  ZINC000623581528    0.1400
     43 H43        -5.2902    5.6495   54.5156 H       1  ZINC000623581528    0.1400
     44 H44        -1.3808    2.3488   49.3493 H       1  ZINC000623581528    0.1400
@<TRIPOS>BOND
     1     1     2    1
     2     1    28    1
     3     1    29    1
     4     1    30    1
     5     2    27    1
     6     2     3   am
     7     3     4    2
     8     3     5    1
     9     5     6    1
    10     6    27   ar
    11     6     7   ar
    12     7     8   ar
    13     7    31    1
    14     8     9   ar
    15     8    32    1
    16     9    10    1
    17     9    26   ar
    18    10    11    1
    19    10    33    1
    20    10    34    1
    21    11    12   am
    22    11    35    1
    23    12    13    2
    24    12    14   am
    25    14    15    1
    26    14    36    1
    27    15    16    1
    28    15    25    1
    29    15    17    1
    30    17    18    1
    31    17    37    1
    32    17    38    1
    33    18    19    1
    34    18    39    1
    35    18    40    1
    36    19    25   ar
    37    19    20   ar
    38    20    21   ar
    39    20    41    1
    40    21    22   ar
    41    21    42    1
    42    22    23    1
    43    22    24   ar
    44    24    25   ar
    45    24    43    1
    46    26    27   ar
    47    26    44    1
@<TRIPOS>SUBSTRUCTURE
     1 ZINC000623581528        1 TEMP              0 ****  ****    0 ROOT


##########                                Name:    ZINC000646817380
##########                DOCK_Rotatable_Bonds:                   6
##########                         Heavy_Atoms:                  25
##########                    Molecular_Weight:             347.457
##########                DOCK_Rotatable_Bonds:                   6
##########                       Formal_Charge:           0.0199991
##########                     HBond_Acceptors:                   6
##########                        HBond_Donors:                   1
##########                         Heavy_Atoms:                  25
##########                          Grid_Score:          -29.185343
##########                     Grid_vdw_energy:          -29.380636
##########                      Grid_es_energy:            0.195293
##########           Internal_energy_repulsive:           62.861015

@<TRIPOS>MOLECULE
ZINC000646817380
 54 56 1 0 0
SMALL
USER_CHARGES


@<TRIPOS>ATOM
      1 C1         -6.8640    1.2083   67.0858 C.3     1  ZINC000646817380   -0.1500
      2 C2         -7.1259   -0.2110   66.5778 C.3     1  ZINC000646817380   -0.0100
      3 C3         -8.3327   -0.8004   67.3106 C.3     1  ZINC000646817380   -0.1500
      4 C4         -7.4073   -0.1708   65.0977 C.2     1  ZINC000646817380   -0.0100
      5 C5         -6.9161    0.7190   64.2057 C.2     1  ZINC000646817380   -0.2200
      6 C6         -7.4859    0.3142   62.9690 C.2     1  ZINC000646817380    0.2400
      7 N7         -7.2930    0.9101   61.7240 N.am    1  ZINC000646817380   -0.6100
      8 C8         -7.8411    0.3610   60.6220 C.2     1  ZINC000646817380    0.5200
      9 O9         -8.5036   -0.6515   60.7138 O.2     1  ZINC000646817380   -0.4900
     10 C10        -7.6328    0.9987   59.2873 C.2     1  ZINC000646817380    0.5300
     11 O11        -6.5902    1.5701   59.0439 O.2     1  ZINC000646817380   -0.5100
     12 N12        -8.6027    0.9395   58.3534 N.am    1  ZINC000646817380   -0.5800
     13 C13        -9.9081    0.2826   58.5143 C.3     1  ZINC000646817380    0.1000
     14 C14       -10.6714    0.4479   57.1832 C.3     1  ZINC000646817380   -0.1300
     15 C15        -9.5332    0.6963   56.1585 C.3     1  ZINC000646817380   -0.1000
     16 H16        -9.0879   -0.2441   55.8336 H       1  ZINC000646817380    0.1000
     17 C17       -10.0398    1.5024   54.9609 C.3     1  ZINC000646817380   -0.0700
     18 H18       -10.8673    2.1431   55.2654 H       1  ZINC000646817380    0.0800
     19 C19        -8.8961    2.3578   54.3777 C.3     1  ZINC000646817380   -0.1300
     20 C20        -9.1337    2.3177   52.8477 C.3     1  ZINC000646817380   -0.1300
     21 C21        -9.6092    0.8623   52.6138 C.3     1  ZINC000646817380   -0.1200
     22 C22       -10.4945    0.5515   53.8398 C.3     1  ZINC000646817380   -0.0700
     23 C23       -10.2971   -0.9024   54.2737 C.3     1  ZINC000646817380   -0.1600
     24 C24       -11.9653    0.8031   53.5015 C.3     1  ZINC000646817380   -0.1400
     25 C25        -8.5328    1.5281   57.0035 C.3     1  ZINC000646817380    0.0900
     26 N26        -8.2273   -0.7298   63.2331 N.2     1  ZINC000646817380   -0.3800
     27 O27        -8.1890   -1.0139   64.4078 O.3     1  ZINC000646817380    0.1100
     28 H28        -6.6604    1.1792   68.1562 H       1  ZINC000646817380    0.0700
     29 H29        -6.0043    1.6282   66.5637 H       1  ZINC000646817380    0.0600
     30 H30        -7.7408    1.8285   66.8993 H       1  ZINC000646817380    0.0600
     31 H31        -6.2492   -0.8312   66.7642 H       1  ZINC000646817380    0.1100
     32 H32        -9.2095   -0.1802   67.1241 H       1  ZINC000646817380    0.0600
     33 H33        -8.5193   -1.8115   66.9487 H       1  ZINC000646817380    0.0600
     34 H34        -8.1292   -0.8294   68.3810 H       1  ZINC000646817380    0.0700
     35 H35        -6.2462    1.5457   64.3906 H       1  ZINC000646817380    0.1900
     36 H36        -6.7644    1.7201   61.6507 H       1  ZINC000646817380    0.4300
     37 H37        -9.7663   -0.7761   58.7313 H       1  ZINC000646817380    0.0800
     38 H38       -10.4649    0.7574   59.3222 H       1  ZINC000646817380    0.0800
     39 H39       -11.2198   -0.4616   56.9377 H       1  ZINC000646817380    0.0900
     40 H40       -11.3438    1.3047   57.2280 H       1  ZINC000646817380    0.0800
     41 H41        -8.9590    3.3815   54.7468 H       1  ZINC000646817380    0.0700
     42 H42        -7.9285    1.9209   54.6251 H       1  ZINC000646817380    0.0800
     43 H43        -9.9079    3.0283   52.5582 H       1  ZINC000646817380    0.0700
     44 H44        -8.2072    2.5129   52.3076 H       1  ZINC000646817380    0.0700
     45 H45       -10.1927    0.7945   51.6955 H       1  ZINC000646817380    0.0700
     46 H46        -8.7570    0.1837   52.5762 H       1  ZINC000646817380    0.0700
     47 H47        -9.2469   -1.1740   54.1669 H       1  ZINC000646817380    0.0700
     48 H48       -10.5973   -1.0145   55.3154 H       1  ZINC000646817380    0.0600
     49 H49       -10.9065   -1.5542   53.6477 H       1  ZINC000646817380    0.0500
     50 H50       -12.2697    0.1421   52.6900 H       1  ZINC000646817380    0.0600
     51 H51       -12.5790    0.6058   54.3804 H       1  ZINC000646817380    0.0500
     52 H52       -12.0949    1.8405   53.1933 H       1  ZINC000646817380    0.0600
     53 H53        -8.8334    2.5756   57.0247 H       1  ZINC000646817380    0.0900
     54 H54        -7.5242    1.4300   56.6023 H       1  ZINC000646817380    0.1000
@<TRIPOS>BOND
     1     1     2    1
     2     1    28    1
     3     1    29    1
     4     1    30    1
     5     2     3    1
     6     2     4    1
     7     2    31    1
     8     3    32    1
     9     3    33    1
    10     3    34    1
    11     4    27    1
    12     4     5    2
    13     5     6    1
    14     5    35    1
    15     6     7    1
    16     6    26    2
    17     7     8   am
    18     7    36    1
    19     8     9    2
    20     8    10    1
    21    10    11    2
    22    10    12   am
    23    12    25    1
    24    12    13    1
    25    13    14    1
    26    13    37    1
    27    13    38    1
    28    14    15    1
    29    14    39    1
    30    14    40    1
    31    15    16    1
    32    15    17    1
    33    15    25    1
    34    17    18    1
    35    17    22    1
    36    17    19    1
    37    19    20    1
    38    19    41    1
    39    19    42    1
    40    20    21    1
    41    20    43    1
    42    20    44    1
    43    21    22    1
    44    21    45    1
    45    21    46    1
    46    22    23    1
    47    22    24    1
    48    23    47    1
    49    23    48    1
    50    23    49    1
    51    24    50    1
    52    24    51    1
    53    24    52    1
    54    25    53    1
    55    25    54    1
    56    26    27    1
@<TRIPOS>SUBSTRUCTURE
     1 ZINC000646817380        1 TEMP              0 ****  ****    0 ROOT


##########                                Name:    ZINC000444205493
##########                DOCK_Rotatable_Bonds:                   4
##########                         Heavy_Atoms:                  24
##########                    Molecular_Weight:             415.351
##########                DOCK_Rotatable_Bonds:                   4
##########                       Formal_Charge:         -0.00999995
##########                     HBond_Acceptors:                   6
##########                        HBond_Donors:                   1
##########                         Heavy_Atoms:                  24
##########                          Grid_Score:          -29.170296
##########                     Grid_vdw_energy:          -28.531126
##########                      Grid_es_energy:           -0.639170
##########           Internal_energy_repulsive:            4.440564

@<TRIPOS>MOLECULE
ZINC000444205493
 47 49 1 0 0
SMALL
USER_CHARGES


@<TRIPOS>ATOM
      1 C1         -6.1350    2.6572   57.3178 C.3     1  ZINC000444205493   -0.1700
      2 C2         -5.2769    3.3067   56.2629 C.2     1  ZINC000444205493    0.5100
      3 O3         -5.0543    4.4980   56.3112 O.2     1  ZINC000444205493   -0.5100
      4 N4         -4.7569    2.5639   55.2658 N.am    1  ZINC000444205493   -0.6800
      5 C5         -3.9599    3.1671   54.2861 C.ar    1  ZINC000444205493    0.2300
      6 C6         -4.5392    3.6615   53.1255 C.ar    1  ZINC000444205493   -0.1400
      7 C7         -3.7499    4.2569   52.1605 C.ar    1  ZINC000444205493    0.0200
      8 C8         -2.3842    4.3605   52.3492 C.ar    1  ZINC000444205493   -0.6900
      9 S9         -1.3815    5.1201   51.1154 S.o2    1  ZINC000444205493    2.7100
     10 O10        -2.2120    6.0580   50.4449 O.2     1  ZINC000444205493   -0.9500
     11 O11        -0.1627    5.4775   51.7529 O.2     1  ZINC000444205493   -0.9500
     12 N12        -1.0029    3.9523   50.0040 N.am    1  ZINC000444205493   -1.0100
     13 C13        -0.2698    2.7033   50.2843 C.3     1  ZINC000444205493    0.1200
     14 C14        -0.7002    1.7256   49.1598 C.3     1  ZINC000444205493   -0.1200
     15 C15        -0.8316    2.6803   47.9573 C.3     1  ZINC000444205493   -0.0700
     16 C16         0.5221    2.8787   47.2674 C.3     1  ZINC000444205493   -0.1100
     17 C17         0.4691    1.9107   46.0563 C.3     1  ZINC000444205493   -0.1200
     18 C18        -1.0089    2.0083   45.6001 C.3     1  ZINC000444205493   -0.1000
     19 H19        -1.1598    2.8937   44.9825 H       1  ZINC000444205493    0.0700
     20 C20        -1.4175    0.7478   44.8354 C.3     1  ZINC000444205493   -0.1500
     21 C21        -1.8064    2.1266   46.9187 C.3     1  ZINC000444205493   -0.1100
     22 C22        -1.3479    3.9852   48.5724 C.3     1  ZINC000444205493    0.1300
     23 C23        -1.8034    3.8696   53.5043 C.ar    1  ZINC000444205493    0.0300
     24 C24        -2.5876    3.2777   54.4757 C.ar    1  ZINC000444205493   -0.1500
     25 Br25       -1.7929    2.6066   56.0550 Br      1  ZINC000444205493   -0.0300
     26 H26        -6.4618    3.4104   58.0347 H       1  ZINC000444205493    0.1000
     27 H27        -7.0061    2.2011   56.8474 H       1  ZINC000444205493    0.1000
     28 H28        -5.5577    1.8903   57.8342 H       1  ZINC000444205493    0.1000
     29 H29        -4.9351    1.6111   55.2272 H       1  ZINC000444205493    0.4200
     30 H30        -5.6059    3.5804   52.9769 H       1  ZINC000444205493    0.1600
     31 H31        -4.2003    4.6416   51.2574 H       1  ZINC000444205493    0.1500
     32 H32         0.8055    2.8777   50.2438 H       1  ZINC000444205493    0.0800
     33 H33        -0.5539    2.3079   51.2595 H       1  ZINC000444205493    0.0800
     34 H34         0.0682    0.9737   48.9800 H       1  ZINC000444205493    0.0900
     35 H35        -1.6563    1.2573   49.3935 H       1  ZINC000444205493    0.0800
     36 H36         0.6314    3.9091   46.9289 H       1  ZINC000444205493    0.0700
     37 H37         1.3368    2.6072   47.9386 H       1  ZINC000444205493    0.0700
     38 H38         1.1400    2.2455   45.2651 H       1  ZINC000444205493    0.0700
     39 H39         0.7114    0.8937   46.3645 H       1  ZINC000444205493    0.0700
     40 H40        -1.2786   -0.1252   45.4732 H       1  ZINC000444205493    0.0500
     41 H41        -2.4655    0.8225   44.5450 H       1  ZINC000444205493    0.0500
     42 H42        -0.7996    0.6478   43.9430 H       1  ZINC000444205493    0.0500
     43 H43        -2.1666    1.1455   47.2282 H       1  ZINC000444205493    0.0700
     44 H44        -2.6450    2.8108   46.7896 H       1  ZINC000444205493    0.0700
     45 H45        -2.4283    4.0541   48.4460 H       1  ZINC000444205493    0.0700
     46 H46        -0.8623    4.8379   48.0977 H       1  ZINC000444205493    0.0800
     47 H47        -0.7363    3.9524   53.6489 H       1  ZINC000444205493    0.1500
@<TRIPOS>BOND
     1     1     2    1
     2     1    26    1
     3     1    27    1
     4     1    28    1
     5     2     3    2
     6     2     4   am
     7     4     5    1
     8     4    29    1
     9     5    24   ar
    10     5     6   ar
    11     6     7   ar
    12     6    30    1
    13     7     8   ar
    14     7    31    1
    15     8     9    1
    16     8    23   ar
    17     9    10    2
    18     9    11    2
    19     9    12   am
    20    12    22    1
    21    12    13    1
    22    13    14    1
    23    13    32    1
    24    13    33    1
    25    14    15    1
    26    14    34    1
    27    14    35    1
    28    15    21    1
    29    15    16    1
    30    15    22    1
    31    16    17    1
    32    16    36    1
    33    16    37    1
    34    17    18    1
    35    17    38    1
    36    17    39    1
    37    18    19    1
    38    18    20    1
    39    18    21    1
    40    20    40    1
    41    20    41    1
    42    20    42    1
    43    21    43    1
    44    21    44    1
    45    22    45    1
    46    22    46    1
    47    23    24   ar
    48    23    47    1
    49    24    25    1
@<TRIPOS>SUBSTRUCTURE
     1 ZINC000444205493        1 TEMP              0 ****  ****    0 ROOT


##########                                Name:    ZINC000022858610
##########                DOCK_Rotatable_Bonds:                   9
##########                         Heavy_Atoms:                  26
##########                    Molecular_Weight:             369.343
##########                DOCK_Rotatable_Bonds:                   9
##########                       Formal_Charge:          0.00999956
##########                     HBond_Acceptors:                   9
##########                        HBond_Donors:                   2
##########                         Heavy_Atoms:                  26
##########                          Grid_Score:          -29.130905
##########                     Grid_vdw_energy:          -27.868736
##########                      Grid_es_energy:           -1.262169
##########           Internal_energy_repulsive:           21.194988

@<TRIPOS>MOLECULE
ZINC000022858610
 44 45 1 0 0
SMALL
USER_CHARGES


@<TRIPOS>ATOM
      1 C1         -8.2590   -0.8011   64.0380 C.3     1  <0>         0.0100
      2 N2         -8.0155    0.5214   63.4471 N.3     1  <0>        -0.5300
      3 C3         -6.5869    0.8614   63.4875 C.3     1  <0>         0.0200
      4 C4         -8.5338    0.5881   62.0742 C.3     1  <0>         0.1500
      5 H5         -9.6088    0.4082   62.0824 H       1  <0>         0.1200
      6 C6         -7.8453   -0.4758   61.2169 C.3     1  <0>         0.1300
      7 N7         -8.8075   -1.5268   60.8768 N.am    1  <0>        -0.6800
      8 C8         -9.7279   -1.3124   59.9159 C.2     1  <0>         0.5100
      9 O9         -9.7586   -0.2494   59.3313 O.2     1  <0>        -0.5100
     10 C10       -10.7100   -2.3832   59.5703 C.2     1  <0>         0.5200
     11 O11       -10.4685   -3.5403   59.8462 O.2     1  <0>        -0.4900
     12 N12       -11.8646   -2.0647   58.9521 N.am    1  <0>        -0.6500
     13 C13       -12.7834   -3.0666   58.6289 C.ar    1  <0>         0.1900
     14 C14       -12.4866   -3.9885   57.6332 C.ar    1  <0>        -0.1200
     15 C15       -13.3971   -4.9774   57.3162 C.ar    1  <0>        -0.0700
     16 C16       -14.6030   -5.0505   57.9889 C.ar    1  <0>        -0.1300
     17 C17       -14.9020   -4.1339   58.9805 C.ar    1  <0>        -0.0500
     18 C18       -13.9937   -3.1464   59.3068 C.ar    1  <0>        -0.2100
     19 C19       -14.3204   -2.1481   60.3874 C.3     1  <0>         0.5100
     20 F20       -15.5549   -2.4697   60.9616 F       1  <0>        -0.1700
     21 F21       -13.3256   -2.1829   61.3705 F       1  <0>        -0.1800
     22 F22       -14.3838   -0.8651   59.8334 F       1  <0>        -0.1700
     23 C23        -8.2573    1.9532   61.4986 C.2     1  <0>        -0.0500
     24 C24        -9.0822    3.0140   61.5585 C.2     1  <0>        -0.1900
     25 C25        -8.4290    4.0787   60.8962 C.2     1  <0>        -0.2100
     26 C26        -7.2441    3.6048   60.4712 C.2     1  <0>        -0.0400
     27 O27        -7.1430    2.3184   60.8439 O.3     1  <0>        -0.1700
     28 H28        -8.0396   -0.7683   65.1052 H       1  <0>         0.0700
     29 H29        -9.3025   -1.0789   63.8901 H       1  <0>         0.0700
     30 H30        -7.6152   -1.5379   63.5574 H       1  <0>         0.0500
     31 H31        -6.0206    0.1181   62.9262 H       1  <0>         0.0300
     32 H32        -6.4348    1.8453   63.0438 H       1  <0>         0.0700
     33 H33        -6.2454    0.8728   64.5225 H       1  <0>         0.0800
     34 H34        -7.4690   -0.0178   60.3021 H       1  <0>         0.0900
     35 H35        -7.0150   -0.9098   61.7740 H       1  <0>         0.0800
     36 H36        -8.7822   -2.3769   61.3431 H       1  <0>         0.4200
     37 H37       -12.0576   -1.1401   58.7317 H       1  <0>         0.4300
     38 H38       -11.5450   -3.9318   57.1072 H       1  <0>         0.1500
     39 H39       -13.1671   -5.6944   56.5419 H       1  <0>         0.1400
     40 H40       -15.3132   -5.8248   57.7390 H       1  <0>         0.1400
     41 H41       -15.8451   -4.1933   59.5034 H       1  <0>         0.1500
     42 H42       -10.0567    3.0460   62.0229 H       1  <0>         0.1500
     43 H43        -8.8088    5.0802   60.7578 H       1  <0>         0.1500
     44 H44        -6.4986    4.1649   59.9262 H       1  <0>         0.2000
@<TRIPOS>BOND
     1     1     2    1
     2     1    28    1
     3     1    29    1
     4     1    30    1
     5     2     3    1
     6     2     4    1
     7     3    31    1
     8     3    32    1
     9     3    33    1
    10     4     5    1
    11     4     6    1
    12     4    23    1
    13     6     7    1
    14     6    34    1
    15     6    35    1
    16     7     8   am
    17     7    36    1
    18     8     9    2
    19     8    10    1
    20    10    11    2
    21    10    12   am
    22    12    13    1
    23    12    37    1
    24    13    18   ar
    25    13    14   ar
    26    14    15   ar
    27    14    38    1
    28    15    16   ar
    29    15    39    1
    30    16    17   ar
    31    16    40    1
    32    17    18   ar
    33    17    41    1
    34    18    19    1
    35    19    20    1
    36    19    21    1
    37    19    22    1
    38    23    27    1
    39    23    24    2
    40    24    25    1
    41    24    42    1
    42    25    26    2
    43    25    43    1
    44    26    27    1
    45    26    44    1
@<TRIPOS>SUBSTRUCTURE
     1 <0>         1 TEMP              0 ****  ****    0 ROOT


##########                                Name:    ZINC000338927927
##########                DOCK_Rotatable_Bonds:                   9
##########                         Heavy_Atoms:                  23
##########                    Molecular_Weight:             336.286
##########                DOCK_Rotatable_Bonds:                   9
##########                       Formal_Charge:         -0.00999999
##########                     HBond_Acceptors:                   9
##########                        HBond_Donors:                   2
##########                         Heavy_Atoms:                  23
##########                          Grid_Score:          -29.121260
##########                     Grid_vdw_energy:          -27.808073
##########                      Grid_es_energy:           -1.313187
##########           Internal_energy_repulsive:           10.279398

@<TRIPOS>MOLECULE
ZINC000338927927
 39 39 1 0 0
SMALL
USER_CHARGES


@<TRIPOS>ATOM
      1 C1         -1.0441    3.6989   52.3156 C.3     1  <0>        -0.1600
      2 C2         -1.1396    4.9083   51.3833 C.3     1  <0>        -0.1100
      3 C3         -2.1675    4.6263   50.2858 C.3     1  <0>        -0.1000
      4 H4         -3.1074    4.3127   50.7401 H       1  <0>         0.1400
      5 C5         -1.6544    3.5314   49.3863 C.2     1  <0>         0.5200
      6 O6         -0.4789    3.4906   49.0903 O.2     1  <0>        -0.4700
      7 N7         -2.5018    2.5973   48.9108 N.am    1  <0>        -0.6700
      8 C8         -2.0255    1.5807   48.0757 C.ar    1  <0>         0.2200
      9 C9         -1.5948    0.3784   48.6210 C.ar    1  <0>        -0.2300
     10 C10        -1.1234   -0.6277   47.7955 C.ar    1  <0>         0.1700
     11 F11        -0.7049   -1.7966   48.3281 F       1  <0>        -0.1300
     12 C12        -1.0810   -0.4382   46.4256 C.ar    1  <0>        -0.2500
     13 C13        -1.5110    0.7632   45.8759 C.ar    1  <0>         0.2600
     14 N14        -1.4675    0.9543   44.4930 N.pl3   1  <0>        -0.7400
     15 C15        -0.2958    0.5177   43.7297 C.3     1  <0>         0.0800
     16 C16         0.9276    1.3256   44.1667 C.3     1  <0>         0.4500
     17 F17         1.3880    0.8458   45.3976 F       1  <0>        -0.1800
     18 F18         1.9385    1.1966   43.2083 F       1  <0>        -0.1700
     19 F19         0.5751    2.6736   44.2940 F       1  <0>        -0.1800
     20 C20        -1.9887    1.7712   46.7016 C.ar    1  <0>        -0.2000
     21 C21        -2.3936    5.8769   49.4759 C.2     1  <0>         0.4600
     22 O22        -3.2550    6.6594   49.8007 O.2     1  <0>        -0.4600
     23 O23        -1.6382    6.1214   48.3937 O.3     1  <0>        -0.3500
     24 C24        -1.9114    7.3453   47.6619 C.3     1  <0>         0.0300
     25 H25        -0.7349    2.8235   51.7446 H       1  <0>         0.0600
     26 H26        -0.3118    3.8999   53.0976 H       1  <0>         0.0600
     27 H27        -2.0176    3.5118   52.7689 H       1  <0>         0.0800
     28 H28        -1.4487    5.7838   51.9544 H       1  <0>         0.0800
     29 H29        -0.1661    5.0953   50.9301 H       1  <0>         0.0800
     30 H30        -3.4418    2.6299   49.1476 H       1  <0>         0.4200
     31 H31        -1.6271    0.2285   49.6900 H       1  <0>         0.1400
     32 H32        -0.7129   -1.2245   45.7832 H       1  <0>         0.1400
     33 H33        -2.2131    1.3761   44.0381 H       1  <0>         0.4100
     34 H34        -0.1164   -0.5416   43.9138 H       1  <0>         0.1100
     35 H35        -0.4752    0.6764   42.6664 H       1  <0>         0.1100
     36 H36        -2.3234    2.7056   46.2760 H       1  <0>         0.1500
     37 H37        -1.2321    7.4203   46.8127 H       1  <0>         0.1000
     38 H38        -2.9408    7.3325   47.3037 H       1  <0>         0.0600
     39 H39        -1.7664    8.2022   48.3199 H       1  <0>         0.0600
@<TRIPOS>BOND
     1     1     2    1
     2     1    25    1
     3     1    26    1
     4     1    27    1
     5     2     3    1
     6     2    28    1
     7     2    29    1
     8     3     4    1
     9     3     5    1
    10     3    21    1
    11     5     6    2
    12     5     7   am
    13     7     8    1
    14     7    30    1
    15     8    20   ar
    16     8     9   ar
    17     9    10   ar
    18     9    31    1
    19    10    11    1
    20    10    12   ar
    21    12    13   ar
    22    12    32    1
    23    13    14    1
    24    13    20   ar
    25    14    15    1
    26    14    33    1
    27    15    16    1
    28    15    34    1
    29    15    35    1
    30    16    17    1
    31    16    18    1
    32    16    19    1
    33    20    36    1
    34    21    22    2
    35    21    23    1
    36    23    24    1
    37    24    37    1
    38    24    38    1
    39    24    39    1
@<TRIPOS>SUBSTRUCTURE
     1 <0>         1 TEMP              0 ****  ****    0 ROOT


##########                                Name:    ZINC001345266033
##########                DOCK_Rotatable_Bonds:                   4
##########                         Heavy_Atoms:                  29
##########                    Molecular_Weight:               389.5
##########                DOCK_Rotatable_Bonds:                   4
##########                       Formal_Charge:          -0.0100001
##########                     HBond_Acceptors:                   6
##########                        HBond_Donors:                   0
##########                         Heavy_Atoms:                  29
##########                          Grid_Score:          -29.112947
##########                     Grid_vdw_energy:          -28.423683
##########                      Grid_es_energy:           -0.689264
##########           Internal_energy_repulsive:            8.481641

@<TRIPOS>MOLECULE
ZINC001345266033
 56 61 1 0 0
SMALL
USER_CHARGES


@<TRIPOS>ATOM
      1 C1        -15.6022   -1.5187   55.3506 C.ar    1  ZINC001345266033   -0.1100
      2 C2        -14.6742   -0.6209   55.8718 C.ar    1  ZINC001345266033   -0.0900
      3 C3        -13.6235   -1.0562   56.6259 C.ar    1  ZINC001345266033   -0.1100
      4 C4        -13.4791   -2.4226   56.8778 C.ar    1  ZINC001345266033    0.0000
      5 C5        -14.4225   -3.3409   56.3492 C.ar    1  ZINC001345266033   -0.1100
      6 C6        -15.4905   -2.8577   55.5775 C.ar    1  ZINC001345266033   -0.0900
      7 C7        -14.2538   -4.7088   56.6182 C.ar    1  ZINC001345266033    0.1700
      8 N8        -13.2467   -5.1336   57.3424 N.ar    1  ZINC001345266033   -0.4800
      9 C9        -12.3312   -4.3355   57.8660 C.ar    1  ZINC001345266033    0.0900
     10 C10       -12.3790   -2.9604   57.6774 C.ar    1  ZINC001345266033   -0.0700
     11 C11       -11.3559   -2.0734   58.2629 C.2     1  ZINC001345266033    0.2300
     12 N12       -10.4089   -1.4364   57.6116 N.2     1  ZINC001345266033   -0.2600
     13 N13        -9.6955   -0.7533   58.4338 N.2     1  ZINC001345266033   -0.3000
     14 C14       -10.1426   -0.9118   59.6594 C.2     1  ZINC001345266033    0.3600
     15 N15        -9.6242   -0.3309   60.8032 N.3     1  ZINC001345266033   -0.4600
     16 C16        -8.6724   -1.2310   61.4653 C.3     1  ZINC001345266033    0.0600
     17 C17        -8.2841   -0.6640   62.8322 C.3     1  ZINC001345266033   -0.1100
     18 C18        -7.5842    0.6864   62.6376 C.3     1  ZINC001345266033   -0.0800
     19 C19        -8.4970    1.5917   61.8036 C.3     1  ZINC001345266033   -0.1300
     20 C20        -9.4329    2.5400   62.5513 C.3     1  ZINC001345266033   -0.1600
     21 C21        -8.2118    3.0924   61.8124 C.3     1  ZINC001345266033   -0.1700
     22 C22        -9.0050    0.9680   60.5003 C.3     1  ZINC001345266033    0.1100
     23 N23       -11.2165   -1.7515   59.5938 N.pl3   1  ZINC001345266033   -0.4600
     24 C24       -12.0435   -2.2195   60.7089 C.3     1  ZINC001345266033    0.1000
     25 C25       -13.4566   -1.6496   60.5700 C.3     1  ZINC001345266033   -0.1400
     26 H26       -13.8304   -1.8014   59.5575 H       1  ZINC001345266033    0.1000
     27 C27       -13.4719   -0.1447   60.9333 C.3     1  ZINC001345266033   -0.1500
     28 C28       -14.7925   -0.0176   61.7348 C.3     1  ZINC001345266033    0.0500
     29 O29       -14.8546   -1.2531   62.4795 O.3     1  ZINC001345266033   -0.3700
     30 C30       -14.4035   -2.2990   61.5976 C.3     1  ZINC001345266033    0.0300
     31 H31       -16.4269   -1.1472   54.7604 H       1  ZINC001345266033    0.1300
     32 H32       -14.7873    0.4352   55.6762 H       1  ZINC001345266033    0.1300
     33 H33       -12.9096   -0.3505   57.0243 H       1  ZINC001345266033    0.1600
     34 H34       -16.2185   -3.5418   55.1671 H       1  ZINC001345266033    0.1400
     35 H35       -14.9635   -5.4207   56.2232 H       1  ZINC001345266033    0.1700
     36 H36       -11.5304   -4.7616   58.4523 H       1  ZINC001345266033    0.1700
     37 H37        -9.1320   -2.2106   61.5970 H       1  ZINC001345266033    0.0700
     38 H38        -7.7796   -1.3314   60.8482 H       1  ZINC001345266033    0.0500
     39 H39        -9.1802   -0.5258   63.4371 H       1  ZINC001345266033    0.0800
     40 H40        -7.6077   -1.3555   63.3346 H       1  ZINC001345266033    0.0800
     41 H41        -7.4000    1.1467   63.6083 H       1  ZINC001345266033    0.0700
     42 H42        -6.6397    0.5372   62.1146 H       1  ZINC001345266033    0.0700
     43 H43       -10.4135    2.7281   62.1140 H       1  ZINC001345266033    0.0900
     44 H44        -9.3983    2.5263   63.6407 H       1  ZINC001345266033    0.0900
     45 H45        -7.3740    3.4420   62.4156 H       1  ZINC001345266033    0.1000
     46 H46        -8.3891    3.6439   60.8890 H       1  ZINC001345266033    0.1000
     47 H47        -8.1698    0.8234   59.8150 H       1  ZINC001345266033    0.0600
     48 H48        -9.7438    1.6271   60.0440 H       1  ZINC001345266033    0.0800
     49 H49       -12.0881   -3.3085   60.6962 H       1  ZINC001345266033    0.1100
     50 H50       -11.6075   -1.8847   61.6501 H       1  ZINC001345266033    0.1100
     51 H51       -12.6140    0.1145   61.5535 H       1  ZINC001345266033    0.0800
     52 H52       -13.5014    0.4720   60.0349 H       1  ZINC001345266033    0.0900
     53 H53       -14.7505    0.8363   62.4109 H       1  ZINC001345266033    0.1000
     54 H54       -15.6444    0.0671   61.0602 H       1  ZINC001345266033    0.0600
     55 H55       -15.2564   -2.7478   61.0884 H       1  ZINC001345266033    0.0600
     56 H56       -13.8677   -3.0584   62.1670 H       1  ZINC001345266033    0.0900
@<TRIPOS>BOND
     1     1     6   ar
     2     1     2   ar
     3     1    31    1
     4     2     3   ar
     5     2    32    1
     6     3     4   ar
     7     3    33    1
     8     4    10   ar
     9     4     5   ar
    10     5     6   ar
    11     5     7   ar
    12     6    34    1
    13     7     8   ar
    14     7    35    1
    15     8     9   ar
    16     9    10   ar
    17     9    36    1
    18    10    11    1
    19    11    23    1
    20    11    12    2
    21    12    13    1
    22    13    14    2
    23    14    15    1
    24    14    23    1
    25    15    22    1
    26    15    16    1
    27    16    17    1
    28    16    37    1
    29    16    38    1
    30    17    18    1
    31    17    39    1
    32    17    40    1
    33    18    19    1
    34    18    41    1
    35    18    42    1
    36    19    21    1
    37    19    20    1
    38    19    22    1
    39    20    21    1
    40    20    43    1
    41    20    44    1
    42    21    45    1
    43    21    46    1
    44    22    47    1
    45    22    48    1
    46    23    24    1
    47    24    25    1
    48    24    49    1
    49    24    50    1
    50    25    26    1
    51    25    30    1
    52    25    27    1
    53    27    28    1
    54    27    51    1
    55    27    52    1
    56    28    29    1
    57    28    53    1
    58    28    54    1
    59    29    30    1
    60    30    55    1
    61    30    56    1
@<TRIPOS>SUBSTRUCTURE
     1 ZINC001345266033        1 TEMP              0 ****  ****    0 ROOT


##########                                Name:    ZINC000355549087
##########                DOCK_Rotatable_Bonds:                   9
##########                         Heavy_Atoms:                  23
##########                    Molecular_Weight:             336.415
##########                DOCK_Rotatable_Bonds:                   9
##########                       Formal_Charge:        -9.53674e-07
##########                     HBond_Acceptors:                   8
##########                        HBond_Donors:                   4
##########                         Heavy_Atoms:                  23
##########                          Grid_Score:          -29.081051
##########                     Grid_vdw_energy:          -28.608410
##########                      Grid_es_energy:           -0.472641
##########           Internal_energy_repulsive:           10.353307

@<TRIPOS>MOLECULE
ZINC000355549087
 43 44 1 0 0
SMALL
USER_CHARGES


@<TRIPOS>ATOM
      1 C1         -4.6270    6.0403   57.7059 C.3     1  <0>        -0.1500
      2 C2         -5.3473    4.7528   57.3003 C.3     1  <0>        -0.1200
      3 C3         -5.2143    4.5483   55.7899 C.3     1  <0>        -0.1000
      4 H4         -5.2581    5.5146   55.2872 H       1  <0>         0.0800
      5 C5         -6.3580    3.6622   55.2924 C.3     1  <0>        -0.1500
      6 C6         -3.8757    3.8738   55.4824 C.3     1  <0>         0.0900
      7 H7         -3.1354    4.1826   56.2205 H       1  <0>         0.1000
      8 O8         -4.0350    2.4546   55.5322 O.3     1  <0>        -0.3500
      9 C9         -2.8262    1.7435   55.8062 C.3     1  <0>         0.0200
     10 C10        -3.4131    4.2796   54.1068 C.2     1  <0>         0.5100
     11 O11        -2.5366    5.1084   53.9818 O.2     1  <0>        -0.4800
     12 N12        -3.9734    3.7215   53.0154 N.am    1  <0>        -0.6200
     13 C13        -3.5456    4.0945   51.7470 C.2     1  <0>         0.2400
     14 N14        -3.0713    3.2812   50.8582 N.2     1  <0>        -0.5000
     15 C15        -2.7095    3.8072   49.6955 C.2     1  <0>         0.1700
     16 C16        -2.1497    2.9978   48.5830 C.2     1  <0>        -0.1100
     17 C17        -1.5101    3.4788   47.4767 C.2     1  <0>         0.0600
     18 N18        -1.1487    2.4296   46.6983 N.pl3   1  <0>        -0.5400
     19 C19        -1.5576    1.2641   47.3059 C.2     1  <0>        -0.0600
     20 C20        -1.3588   -0.0941   46.7881 C.2     1  <0>         0.5900
     21 N21        -1.3753   -0.3178   45.4591 N.am    1  <0>        -0.8600
     22 O22        -1.1791   -1.0188   47.5586 O.2     1  <0>        -0.5300
     23 C23        -2.1763    1.5943   48.4792 C.2     1  <0>        -0.0600
     24 C24        -2.8935    5.1371   49.6110 C.2     1  <0>        -0.3200
     25 S25        -3.5779    5.6907   51.1368 S.3     1  <0>         0.2500
     26 H26        -4.7217    6.1860   58.7820 H       1  <0>         0.0600
     27 H27        -3.5725    5.9657   57.4408 H       1  <0>         0.0600
     28 H28        -5.0740    6.8865   57.1840 H       1  <0>         0.0600
     29 H29        -4.9004    3.9067   57.8222 H       1  <0>         0.0600
     30 H30        -6.4019    4.8274   57.5654 H       1  <0>         0.0700
     31 H31        -6.3141    2.6960   55.7951 H       1  <0>         0.0700
     32 H32        -7.3116    4.1427   55.5114 H       1  <0>         0.0600
     33 H33        -6.2632    3.5166   54.2164 H       1  <0>         0.0500
     34 H34        -3.0099    0.6717   55.7291 H       1  <0>         0.0900
     35 H35        -2.0623    2.0340   55.0850 H       1  <0>         0.0500
     36 H36        -2.4846    1.9820   56.8134 H       1  <0>         0.0500
     37 H37        -4.6753    3.0595   53.1154 H       1  <0>         0.4200
     38 H38        -1.3235    4.5201   47.2586 H       1  <0>         0.1800
     39 H39        -0.6791    2.4902   45.8517 H       1  <0>         0.4200
     40 H40        -1.2427   -1.2157   45.1168 H       1  <0>         0.4000
     41 H41        -1.5197    0.4190   44.8450 H       1  <0>         0.4100
     42 H42        -2.6101    0.9071   49.1906 H       1  <0>         0.1500
     43 H43        -2.6651    5.7563   48.7563 H       1  <0>         0.1800
@<TRIPOS>BOND
     1     1     2    1
     2     1    26    1
     3     1    27    1
     4     1    28    1
     5     2     3    1
     6     2    29    1
     7     2    30    1
     8     3     4    1
     9     3     5    1
    10     3     6    1
    11     5    31    1
    12     5    32    1
    13     5    33    1
    14     6     7    1
    15     6     8    1
    16     6    10    1
    17     8     9    1
    18     9    34    1
    19     9    35    1
    20     9    36    1
    21    10    11    2
    22    10    12   am
    23    12    13    1
    24    12    37    1
    25    13    25    1
    26    13    14    2
    27    14    15    1
    28    15    16    1
    29    15    24    2
    30    16    23    1
    31    16    17    2
    32    17    18    1
    33    17    38    1
    34    18    19    1
    35    18    39    1
    36    19    20    1
    37    19    23    2
    38    20    21   am
    39    20    22    2
    40    21    40    1
    41    21    41    1
    42    23    42    1
    43    24    25    1
    44    24    43    1
@<TRIPOS>SUBSTRUCTURE
     1 <0>         1 TEMP              0 ****  ****    0 ROOT


##########                                Name:    ZINC000863216249
##########                DOCK_Rotatable_Bonds:                   5
##########                         Heavy_Atoms:                  23
##########                    Molecular_Weight:             396.351
##########                DOCK_Rotatable_Bonds:                   5
##########                       Formal_Charge:         -0.00999944
##########                     HBond_Acceptors:                   5
##########                        HBond_Donors:                   1
##########                         Heavy_Atoms:                  23
##########                          Grid_Score:          -29.073101
##########                     Grid_vdw_energy:          -28.364977
##########                      Grid_es_energy:           -0.708125
##########           Internal_energy_repulsive:           29.303989

@<TRIPOS>MOLECULE
ZINC000863216249
 45 48 1 0 0
SMALL
USER_CHARGES


@<TRIPOS>ATOM
      1 S1        -10.3240   -1.9344   61.7579 S.2     1  ZINC000863216249   -0.5900
      2 C2         -9.4910   -0.9331   60.6470 C.2     1  ZINC000863216249    0.5600
      3 N3         -8.4184   -0.2242   61.0516 N.am    1  ZINC000863216249   -0.6800
      4 C4         -7.9691   -0.3059   62.4435 C.3     1  ZINC000863216249    0.1200
      5 C5         -8.6110    0.8221   63.2537 C.3     1  ZINC000863216249    0.0400
      6 N6         -8.1847    0.7217   64.6559 N.3     1  ZINC000863216249   -0.5300
      7 C7         -6.7280    0.8790   64.7763 C.3     1  ZINC000863216249    0.0000
      8 C8         -6.3349    0.8277   66.2550 C.3     1  ZINC000863216249    0.0600
      9 O9         -6.7956   -0.4013   66.8232 O.3     1  ZINC000863216249   -0.3800
     10 C10        -8.2102   -0.5869   66.7239 C.3     1  ZINC000863216249    0.0600
     11 C11        -8.6222   -0.5498   65.2499 C.3     1  ZINC000863216249    0.0200
     12 N12        -9.9043   -0.8579   59.3663 N.am    1  ZINC000863216249   -0.5100
     13 C13       -11.0541   -1.5797   58.8097 C.3     1  ZINC000863216249    0.1200
     14 C14       -11.1059   -1.1622   57.3367 C.3     1  ZINC000863216249   -0.1100
     15 C15       -11.5169   -2.1412   56.2437 C.3     1  ZINC000863216249   -0.1500
     16 C16       -12.4301   -0.9674   56.6085 C.3     1  ZINC000863216249   -0.1500
     17 C17        -9.9531   -0.2090   57.1548 C.ar    1  ZINC000863216249   -0.0700
     18 C18        -9.5061    0.4828   56.0456 C.ar    1  ZINC000863216249   -0.0800
     19 C19        -8.4034    1.3110   56.1398 C.ar    1  ZINC000863216249   -0.1000
     20 C20        -7.7461    1.4468   57.3496 C.ar    1  ZINC000863216249   -0.0700
     21 Br21       -6.2378    2.5797   57.4813 Br      1  ZINC000863216249   -0.0400
     22 C22        -8.1884    0.7582   58.4603 C.ar    1  ZINC000863216249   -0.0900
     23 C23        -9.3039   -0.0757   58.3743 C.ar    1  ZINC000863216249    0.1400
     24 H24        -7.9441    0.3401   60.4211 H       1  ZINC000863216249    0.4000
     25 H25        -8.2623   -1.2677   62.8642 H       1  ZINC000863216249    0.0900
     26 H26        -6.8841   -0.2084   62.4814 H       1  ZINC000863216249    0.1000
     27 H27        -8.2994    1.7842   62.8472 H       1  ZINC000863216249    0.0900
     28 H28        -9.6963    0.7380   63.1970 H       1  ZINC000863216249    0.0400
     29 H29        -6.2292    0.0724   64.2389 H       1  ZINC000863216249    0.0500
     30 H30        -6.4293    1.8382   64.3534 H       1  ZINC000863216249    0.1000
     31 H31        -5.2503    0.8866   66.3456 H       1  ZINC000863216249    0.1000
     32 H32        -6.7908    1.6658   66.7822 H       1  ZINC000863216249    0.0600
     33 H33        -8.4818   -1.5511   67.1537 H       1  ZINC000863216249    0.1000
     34 H34        -8.7206    0.2101   67.2646 H       1  ZINC000863216249    0.0600
     35 H35        -9.7062   -0.6338   65.1728 H       1  ZINC000863216249    0.0900
     36 H36        -8.1538   -1.3793   64.7201 H       1  ZINC000863216249    0.0500
     37 H37       -10.9030   -2.6559   58.8937 H       1  ZINC000863216249    0.0900
     38 H38       -11.9707   -1.2837   59.3200 H       1  ZINC000863216249    0.0900
     39 H39       -10.9843   -2.0887   55.2942 H       1  ZINC000863216249    0.1100
     40 H40       -11.8308   -3.1383   56.5528 H       1  ZINC000863216249    0.1100
     41 H41       -13.3445   -1.1924   57.1575 H       1  ZINC000863216249    0.1100
     42 H42       -12.4980   -0.1428   55.8989 H       1  ZINC000863216249    0.1100
     43 H43       -10.0197    0.3758   55.1016 H       1  ZINC000863216249    0.1400
     44 H44        -8.0556    1.8505   55.2713 H       1  ZINC000863216249    0.1400
     45 H45        -7.6709    0.8681   59.4019 H       1  ZINC000863216249    0.1900
@<TRIPOS>BOND
     1     1     2    2
     2     2     3   am
     3     2    12   am
     4     3     4    1
     5     3    24    1
     6     4     5    1
     7     4    25    1
     8     4    26    1
     9     5     6    1
    10     5    27    1
    11     5    28    1
    12     6    11    1
    13     6     7    1
    14     7     8    1
    15     7    29    1
    16     7    30    1
    17     8     9    1
    18     8    31    1
    19     8    32    1
    20     9    10    1
    21    10    11    1
    22    10    33    1
    23    10    34    1
    24    11    35    1
    25    11    36    1
    26    12    23    1
    27    12    13    1
    28    13    14    1
    29    13    37    1
    30    13    38    1
    31    14    16    1
    32    14    15    1
    33    14    17    1
    34    15    16    1
    35    15    39    1
    36    15    40    1
    37    16    41    1
    38    16    42    1
    39    17    23   ar
    40    17    18   ar
    41    18    19   ar
    42    18    43    1
    43    19    20   ar
    44    19    44    1
    45    20    21    1
    46    20    22   ar
    47    22    23   ar
    48    22    45    1
@<TRIPOS>SUBSTRUCTURE
     1 ZINC000863216249        1 TEMP              0 ****  ****    0 ROOT


##########                                Name:    ZINC000179743483
##########                DOCK_Rotatable_Bonds:                   5
##########                         Heavy_Atoms:                  23
##########                    Molecular_Weight:             393.347
##########                DOCK_Rotatable_Bonds:                   5
##########                       Formal_Charge:          -0.0199999
##########                     HBond_Acceptors:                   4
##########                        HBond_Donors:                   0
##########                         Heavy_Atoms:                  23
##########                          Grid_Score:          -29.072247
##########                     Grid_vdw_energy:          -28.631836
##########                      Grid_es_energy:           -0.440410
##########           Internal_energy_repulsive:           19.842787

@<TRIPOS>MOLECULE
ZINC000179743483
 44 46 1 0 0
SMALL
USER_CHARGES


@<TRIPOS>ATOM
      1 C1         -0.8827    4.0838   51.2487 C.3     1  ZINC000179743483   -0.1400
      2 C2         -2.1679    4.2625   50.4380 C.3     1  ZINC000179743483   -0.1000
      3 H3         -2.6843    3.3056   50.3600 H       1  ZINC000179743483    0.1000
      4 C4         -3.0755    5.2761   51.1380 C.3     1  ZINC000179743483   -0.0700
      5 C5         -3.5108    4.7242   52.4710 C.ar    1  ZINC000179743483   -0.0600
      6 C6         -4.2132    3.5348   52.5303 C.ar    1  ZINC000179743483   -0.1100
      7 C7         -4.6123    3.0281   53.7528 C.ar    1  ZINC000179743483   -0.0900
      8 C8         -4.3089    3.7109   54.9168 C.ar    1  ZINC000179743483   -0.0900
      9 Br9        -4.8540    3.0177   56.5896 Br      1  ZINC000179743483   -0.0500
     10 C10        -3.6061    4.9009   54.8569 C.ar    1  ZINC000179743483   -0.0900
     11 C11        -3.2028    5.4043   53.6344 C.ar    1  ZINC000179743483   -0.1100
     12 C12        -1.8263    4.7628   49.0583 C.2     1  ZINC000179743483    0.5200
     13 O13        -1.9673    5.9364   48.7867 O.2     1  ZINC000179743483   -0.5300
     14 N14        -1.3639    3.9063   48.1261 N.am    1  ZINC000179743483   -0.6100
     15 C15        -1.0266    4.3794   46.7766 C.3     1  ZINC000179743483    0.1000
     16 C16         0.4069    3.9507   46.4477 C.3     1  ZINC000179743483   -0.1400
     17 C17         0.5379    2.4373   46.6343 C.3     1  ZINC000179743483   -0.1100
     18 C18         0.2477    2.0744   48.0923 C.3     1  ZINC000179743483   -0.0200
     19 H19         0.9437    2.6024   48.7442 H       1  ZINC000179743483    0.0900
     20 C20         0.4093    0.5882   48.2825 C.2     1  ZINC000179743483    0.0500
     21 N21         1.5405   -0.0275   48.3608 N.2     1  ZINC000179743483   -0.4700
     22 C22         1.5030   -1.3342   48.5288 C.2     1  ZINC000179743483    0.0400
     23 C23         0.2716   -1.8491   48.5959 C.2     1  ZINC000179743483   -0.2600
     24 S24        -0.8796   -0.5251   48.4329 S.3     1  ZINC000179743483    0.1300
     25 C25        -1.1819    2.4830   48.4417 C.3     1  ZINC000179743483    0.1200
     26 H26        -0.3279    5.0220   51.2616 H       1  ZINC000179743483    0.0700
     27 H27        -1.1340    3.7961   52.2695 H       1  ZINC000179743483    0.0700
     28 H28        -0.2704    3.3060   50.7923 H       1  ZINC000179743483    0.0600
     29 H29        -2.5301    6.2073   51.2909 H       1  ZINC000179743483    0.0900
     30 H30        -3.9527    5.4661   50.5194 H       1  ZINC000179743483    0.0800
     31 H31        -4.4504    3.0020   51.6215 H       1  ZINC000179743483    0.1300
     32 H32        -5.1613    2.0991   53.7991 H       1  ZINC000179743483    0.1300
     33 H33        -3.3689    5.4344   55.7654 H       1  ZINC000179743483    0.1300
     34 H34        -2.6540    6.3333   53.5875 H       1  ZINC000179743483    0.1300
     35 H35        -1.7142    3.9411   46.0533 H       1  ZINC000179743483    0.0700
     36 H36        -1.1001    5.4664   46.7415 H       1  ZINC000179743483    0.0900
     37 H37         0.6365    4.2111   45.4145 H       1  ZINC000179743483    0.0800
     38 H38         1.1014    4.4610   47.1151 H       1  ZINC000179743483    0.0700
     39 H39        -0.1743    1.9284   45.9847 H       1  ZINC000179743483    0.0800
     40 H40         1.5504    2.1261   46.3772 H       1  ZINC000179743483    0.0700
     41 H41         2.3943   -1.9391   48.6056 H       1  ZINC000179743483    0.1800
     42 H42         0.0256   -2.8922   48.7301 H       1  ZINC000179743483    0.1800
     43 H43        -1.3599    2.3173   49.5043 H       1  ZINC000179743483    0.0900
     44 H44        -1.8847    1.8918   47.8548 H       1  ZINC000179743483    0.0800
@<TRIPOS>BOND
     1     1     2    1
     2     1    26    1
     3     1    27    1
     4     1    28    1
     5     2     3    1
     6     2     4    1
     7     2    12    1
     8     4     5    1
     9     4    29    1
    10     4    30    1
    11     5    11   ar
    12     5     6   ar
    13     6     7   ar
    14     6    31    1
    15     7     8   ar
    16     7    32    1
    17     8     9    1
    18     8    10   ar
    19    10    11   ar
    20    10    33    1
    21    11    34    1
    22    12    13    2
    23    12    14   am
    24    14    25    1
    25    14    15    1
    26    15    16    1
    27    15    35    1
    28    15    36    1
    29    16    17    1
    30    16    37    1
    31    16    38    1
    32    17    18    1
    33    17    39    1
    34    17    40    1
    35    18    19    1
    36    18    20    1
    37    18    25    1
    38    20    24    1
    39    20    21    2
    40    21    22    1
    41    22    23    2
    42    22    41    1
    43    23    24    1
    44    23    42    1
    45    25    43    1
    46    25    44    1
@<TRIPOS>SUBSTRUCTURE
     1 ZINC000179743483        1 TEMP              0 ****  ****    0 ROOT


##########                                Name:    ZINC000888733009
##########                DOCK_Rotatable_Bonds:                   6
##########                         Heavy_Atoms:                  25
##########                    Molecular_Weight:             360.434
##########                DOCK_Rotatable_Bonds:                   6
##########                       Formal_Charge:        -1.02073e-06
##########                     HBond_Acceptors:                   7
##########                        HBond_Donors:                   2
##########                         Heavy_Atoms:                  25
##########                          Grid_Score:          -29.069275
##########                     Grid_vdw_energy:          -28.476398
##########                      Grid_es_energy:           -0.592876
##########           Internal_energy_repulsive:           20.757393

@<TRIPOS>MOLECULE
ZINC000888733009
 45 48 1 0 0
SMALL
USER_CHARGES


@<TRIPOS>ATOM
      1 C1         -0.9733    0.5230   45.0181 C.3     1  ZINC000888733009   -0.1500
      2 C2         -0.4102    1.4837   46.0675 C.3     1  ZINC000888733009    0.0700
      3 H3          0.6795    1.4616   46.0549 H       1  ZINC000888733009    0.0700
      4 C4         -0.9399    1.1151   47.4741 C.3     1  ZINC000888733009   -0.1300
      5 C5         -1.1564    2.4770   48.1473 C.3     1  ZINC000888733009   -0.1100
      6 C6         -2.5213    2.6879   48.7977 C.3     1  ZINC000888733009   -0.1300
      7 C7         -1.7770    3.4587   49.9036 C.3     1  ZINC000888733009    0.1200
      8 N8         -2.2754    3.1762   51.2519 N.am    1  ZINC000888733009   -0.7100
      9 C9         -3.3103    3.8817   51.7494 C.2     1  ZINC000888733009    0.5900
     10 O10        -3.8319    4.7526   51.0779 O.2     1  ZINC000888733009   -0.5600
     11 C11        -3.8079    3.6002   53.0992 C.2     1  ZINC000888733009   -0.2400
     12 C12        -3.0051    3.1963   54.1350 C.2     1  ZINC000888733009    0.0800
     13 N13        -1.6365    3.0044   54.0423 N.am    1  ZINC000888733009   -0.6100
     14 C14        -0.9189    2.7241   55.1482 C.2     1  ZINC000888733009    0.6000
     15 O15        -1.4737    2.6380   56.2280 O.2     1  ZINC000888733009   -0.4900
     16 C16         0.5298    2.5229   55.0505 C.2     1  ZINC000888733009   -0.0900
     17 C17         1.3869    2.3378   56.0976 C.2     1  ZINC000888733009   -0.1000
     18 C18         2.6694    2.1874   55.5475 C.2     1  ZINC000888733009   -0.2300
     19 C19         2.5408    2.2860   54.2059 C.2     1  ZINC000888733009    0.0100
     20 O20         1.2494    2.4823   53.9099 O.3     1  ZINC000888733009   -0.1600
     21 S21        -3.9228    2.9631   55.5523 S.3     1  ZINC000888733009    0.3000
     22 C22        -5.4177    3.4140   54.7519 C.2     1  ZINC000888733009   -0.2800
     23 C23        -5.1972    3.7245   53.4825 C.2     1  ZINC000888733009   -0.0900
     24 C24        -0.5249    2.6454   49.5268 C.3     1  ZINC000888733009   -0.1400
     25 C25        -0.7499    3.5160   47.0938 C.3     1  ZINC000888733009    0.0700
     26 O26        -0.8888    2.8261   45.8285 O.3     1  ZINC000888733009   -0.3700
     27 H27        -0.6129    0.8117   44.0308 H       1  ZINC000888733009    0.0600
     28 H28        -0.6457   -0.4921   45.2420 H       1  ZINC000888733009    0.0700
     29 H29        -2.0623    0.5652   45.0341 H       1  ZINC000888733009    0.0600
     30 H30        -1.8813    0.5707   47.3987 H       1  ZINC000888733009    0.0800
     31 H31        -0.2004    0.5302   48.0211 H       1  ZINC000888733009    0.0800
     32 H32        -3.1954    3.3098   48.2087 H       1  ZINC000888733009    0.0800
     33 H33        -2.9877    1.7659   49.1448 H       1  ZINC000888733009    0.0900
     34 H34        -1.6819    4.5258   49.7030 H       1  ZINC000888733009    0.1200
     35 H35        -1.8605    2.4813   51.7867 H       1  ZINC000888733009    0.4000
     36 H36        -1.1946    3.0719   53.1815 H       1  ZINC000888733009    0.4400
     37 H37         1.1280    2.3124   57.1458 H       1  ZINC000888733009    0.1700
     38 H38         3.5866    2.0239   56.0938 H       1  ZINC000888733009    0.1600
     39 H39         3.3461    2.2138   53.4899 H       1  ZINC000888733009    0.2200
     40 H40        -6.3857    3.4391   55.2300 H       1  ZINC000888733009    0.1700
     41 H41        -5.9769    4.0314   52.8011 H       1  ZINC000888733009    0.1500
     42 H42        -0.4268    1.7114   50.0800 H       1  ZINC000888733009    0.0900
     43 H43         0.3930    3.2334   49.5191 H       1  ZINC000888733009    0.0800
     44 H44        -1.4160    4.3779   47.1329 H       1  ZINC000888733009    0.0900
     45 H45         0.2841    3.8260   47.2446 H       1  ZINC000888733009    0.0700
@<TRIPOS>BOND
     1     1     2    1
     2     1    27    1
     3     1    28    1
     4     1    29    1
     5     2     3    1
     6     2    26    1
     7     2     4    1
     8     4     5    1
     9     4    30    1
    10     4    31    1
    11     5    24    1
    12     5     6    1
    13     5    25    1
    14     6     7    1
    15     6    32    1
    16     6    33    1
    17     7     8    1
    18     7    24    1
    19     7    34    1
    20     8     9   am
    21     8    35    1
    22     9    10    2
    23     9    11    1
    24    11    23    1
    25    11    12    2
    26    12    13    1
    27    12    21    1
    28    13    14   am
    29    13    36    1
    30    14    15    2
    31    14    16    1
    32    16    20    1
    33    16    17    2
    34    17    18    1
    35    17    37    1
    36    18    19    2
    37    18    38    1
    38    19    20    1
    39    19    39    1
    40    21    22    1
    41    22    23    2
    42    22    40    1
    43    23    41    1
    44    24    42    1
    45    24    43    1
    46    25    26    1
    47    25    44    1
    48    25    45    1
@<TRIPOS>SUBSTRUCTURE
     1 ZINC000888733009        1 TEMP              0 ****  ****    0 ROOT


##########                                Name:    ZINC000433961694
##########                DOCK_Rotatable_Bonds:                   7
##########                         Heavy_Atoms:                  29
##########                    Molecular_Weight:             413.472
##########                DOCK_Rotatable_Bonds:                   7
##########                       Formal_Charge:          0.00999992
##########                     HBond_Acceptors:                   8
##########                        HBond_Donors:                   0
##########                         Heavy_Atoms:                  29
##########                          Grid_Score:          -29.045794
##########                     Grid_vdw_energy:          -27.836908
##########                      Grid_es_energy:           -1.208885
##########           Internal_energy_repulsive:           11.695536

@<TRIPOS>MOLECULE
ZINC000433961694
 49 52 1 0 0
SMALL
USER_CHARGES


@<TRIPOS>ATOM
      1 C1          0.3025    3.5959   52.8080 C.3     1  ZINC000433961694   -0.1000
      2 C2         -0.7931    3.7242   51.7812 C.2     1  ZINC000433961694    0.1600
      3 C3         -1.8888    4.5024   51.9660 C.2     1  ZINC000433961694   -0.3000
      4 C4         -2.1807    5.3179   53.1498 C.2     1  ZINC000433961694    0.6200
      5 O5         -1.7494    6.4530   53.2282 O.2     1  ZINC000433961694   -0.5100
      6 N6         -2.9268    4.8098   54.1507 N.am    1  ZINC000433961694   -0.6100
      7 C7         -3.2949    5.5157   55.3916 C.3     1  ZINC000433961694    0.1100
      8 C8         -4.5875    4.8142   55.8782 C.3     1  ZINC000433961694   -0.1300
      9 C9         -4.2991    3.3360   55.5054 C.3     1  ZINC000433961694    0.0800
     10 H10        -3.6932    2.8556   56.2737 H       1  ZINC000433961694    0.1000
     11 O11        -5.5183    2.6184   55.3035 O.3     1  ZINC000433961694   -0.2900
     12 C12        -6.2954    2.4043   56.3956 C.ar    1  ZINC000433961694    0.1700
     13 C13        -7.6385    2.0617   56.2601 C.ar    1  ZINC000433961694   -0.2600
     14 C14        -8.3950    1.8524   57.3947 C.ar    1  ZINC000433961694    0.1400
     15 N15        -7.8610    1.9729   58.5953 N.ar    1  ZINC000433961694   -0.5100
     16 C16        -6.5926    2.2957   58.7644 C.ar    1  ZINC000433961694    0.1400
     17 C17        -5.7686    2.5158   57.6798 C.ar    1  ZINC000433961694   -0.2000
     18 C18        -3.5138    3.4622   54.1830 C.3     1  ZINC000433961694    0.0600
     19 S19        -2.8981    4.3585   50.5287 S.3     1  ZINC000433961694    0.2100
     20 C20        -1.7670    3.2834   49.8306 C.2     1  ZINC000433961694    0.0400
     21 C21        -1.9109    2.6463   48.4725 C.3     1  ZINC000433961694    0.1400
     22 O22        -0.8893    1.6625   48.2973 O.3     1  ZINC000433961694   -0.3000
     23 C23        -0.5516    1.3442   47.0195 C.ar    1  ZINC000433961694    0.1200
     24 C24         0.7834    1.2151   46.6659 C.ar    1  ZINC000433961694   -0.1800
     25 C25         1.1251    0.8916   45.3670 C.ar    1  ZINC000433961694   -0.1100
     26 C26         0.1357    0.6968   44.4183 C.ar    1  ZINC000433961694    0.0600
     27 F27         0.4712    0.3810   43.1483 F       1  ZINC000433961694   -0.1400
     28 C28        -1.1973    0.8249   44.7700 C.ar    1  ZINC000433961694   -0.1100
     29 C29        -1.5420    1.1427   46.0695 C.ar    1  ZINC000433961694   -0.1200
     30 N30        -0.7670    3.0985   50.6312 N.2     1  ZINC000433961694   -0.4500
     31 H31         1.0569    4.3628   52.6320 H       1  ZINC000433961694    0.0800
     32 H32        -0.1179    3.7219   53.8056 H       1  ZINC000433961694    0.1000
     33 H33         0.7611    2.6102   52.7288 H       1  ZINC000433961694    0.0800
     34 H34        -2.5046    5.4129   56.1351 H       1  ZINC000433961694    0.0800
     35 H35        -3.4889    6.5683   55.1860 H       1  ZINC000433961694    0.1000
     36 H36        -4.7122    4.9284   56.9550 H       1  ZINC000433961694    0.1000
     37 H37        -5.4604    5.1889   55.3436 H       1  ZINC000433961694    0.1000
     38 H38        -8.0818    1.9619   55.2803 H       1  ZINC000433961694    0.1400
     39 H39        -9.4375    1.5868   57.2990 H       1  ZINC000433961694    0.1600
     40 H40        -6.1936    2.3845   59.7640 H       1  ZINC000433961694    0.1700
     41 H41        -4.7314    2.7795   57.8250 H       1  ZINC000433961694    0.1400
     42 H42        -4.1876    3.3256   53.3372 H       1  ZINC000433961694    0.0900
     43 H43        -2.7194    2.7165   54.1511 H       1  ZINC000433961694    0.0800
     44 H44        -2.8892    2.1718   48.3955 H       1  ZINC000433961694    0.0900
     45 H45        -1.8158    3.4102   47.7009 H       1  ZINC000433961694    0.1000
     46 H46         1.5553    1.3677   47.4055 H       1  ZINC000433961694    0.1400
     47 H47         2.1644    0.7911   45.0914 H       1  ZINC000433961694    0.1400
     48 H48        -1.9681    0.6724   44.0290 H       1  ZINC000433961694    0.1500
     49 H49        -2.5819    1.2425   46.3437 H       1  ZINC000433961694    0.1400
@<TRIPOS>BOND
     1     1     2    1
     2     1    31    1
     3     1    32    1
     4     1    33    1
     5     2    30    1
     6     2     3    2
     7     3     4    1
     8     3    19    1
     9     4     5    2
    10     4     6   am
    11     6    18    1
    12     6     7    1
    13     7     8    1
    14     7    34    1
    15     7    35    1
    16     8     9    1
    17     8    36    1
    18     8    37    1
    19     9    10    1
    20     9    11    1
    21     9    18    1
    22    11    12    1
    23    12    17   ar
    24    12    13   ar
    25    13    14   ar
    26    13    38    1
    27    14    15   ar
    28    14    39    1
    29    15    16   ar
    30    16    17   ar
    31    16    40    1
    32    17    41    1
    33    18    42    1
    34    18    43    1
    35    19    20    1
    36    20    21    1
    37    20    30    2
    38    21    22    1
    39    21    44    1
    40    21    45    1
    41    22    23    1
    42    23    29   ar
    43    23    24   ar
    44    24    25   ar
    45    24    46    1
    46    25    26   ar
    47    25    47    1
    48    26    27    1
    49    26    28   ar
    50    28    29   ar
    51    28    48    1
    52    29    49    1
@<TRIPOS>SUBSTRUCTURE
     1 ZINC000433961694        1 TEMP              0 ****  ****    0 ROOT


##########                                Name:    ZINC000854704989
##########                DOCK_Rotatable_Bonds:                   5
##########                         Heavy_Atoms:                  22
##########                    Molecular_Weight:             365.227
##########                DOCK_Rotatable_Bonds:                   5
##########                       Formal_Charge:        -1.78814e-07
##########                     HBond_Acceptors:                   5
##########                        HBond_Donors:                   1
##########                         Heavy_Atoms:                  22
##########                          Grid_Score:          -29.032391
##########                     Grid_vdw_energy:          -27.179598
##########                      Grid_es_energy:           -1.852793
##########           Internal_energy_repulsive:           10.034165

@<TRIPOS>MOLECULE
ZINC000854704989
 39 41 1 0 0
SMALL
USER_CHARGES


@<TRIPOS>ATOM
      1 O1         -4.0236    5.1794   52.5396 O.2     1  ZINC000854704989   -0.5300
      2 C2         -3.3918    4.1882   52.2303 C.2     1  ZINC000854704989    0.5700
      3 N3         -3.3242    3.1410   53.0761 N.am    1  ZINC000854704989   -0.7300
      4 C4         -4.0071    3.1998   54.3708 C.3     1  ZINC000854704989    0.2000
      5 C5         -5.4747    2.9168   54.1780 C.2     1  ZINC000854704989   -0.0500
      6 C6         -6.3856    2.6647   55.1477 C.2     1  ZINC000854704989   -0.1700
      7 C7         -7.5945    2.4702   54.4388 C.2     1  ZINC000854704989    0.0000
      8 Br8        -9.2903    2.0763   55.1770 Br      1  ZINC000854704989    0.0600
      9 N9         -7.3075    2.6168   53.1767 N.2     1  ZINC000854704989   -0.3200
     10 O10        -6.1367    2.8709   53.0133 O.3     1  ZINC000854704989    0.1300
     11 C11        -2.7025    4.1287   50.9236 C.ar    1  ZINC000854704989   -0.1300
     12 C12        -2.0084    5.2413   50.4461 C.ar    1  ZINC000854704989   -0.0900
     13 C13        -1.3670    5.1790   49.2262 C.ar    1  ZINC000854704989   -0.1200
     14 C14        -1.4113    4.0172   48.4765 C.ar    1  ZINC000854704989   -0.0900
     15 C15        -2.0979    2.9104   48.9442 C.ar    1  ZINC000854704989   -0.0800
     16 C16        -2.1408    1.6490   48.1207 C.3     1  ZINC000854704989   -0.0800
     17 H17        -3.0433    1.0873   48.3616 H       1  ZINC000854704989    0.0900
     18 C18        -0.9079    0.7940   48.4293 C.3     1  ZINC000854704989   -0.1100
     19 C19        -0.9226   -0.4465   47.5309 C.3     1  ZINC000854704989   -0.1600
     20 C20        -0.9717   -0.0053   46.0657 C.3     1  ZINC000854704989    0.0600
     21 O21        -2.1252    0.8112   45.8539 O.3     1  ZINC000854704989   -0.3800
     22 C22        -2.1444    2.0093   46.6327 C.3     1  ZINC000854704989    0.0700
     23 C23        -2.7385    2.9576   50.1648 C.ar    1  ZINC000854704989   -0.0500
     24 H24        -2.8232    2.3484   52.8275 H       1  ZINC000854704989    0.4000
     25 H25        -3.5785    2.4554   55.0418 H       1  ZINC000854704989    0.1100
     26 H26        -3.8822    4.1928   54.8026 H       1  ZINC000854704989    0.1000
     27 H27        -6.2263    2.6216   56.2150 H       1  ZINC000854704989    0.1900
     28 H28        -1.9736    6.1490   51.0302 H       1  ZINC000854704989    0.1200
     29 H29        -0.8294    6.0392   48.8555 H       1  ZINC000854704989    0.1300
     30 H30        -0.9081    3.9738   47.5218 H       1  ZINC000854704989    0.1300
     31 H31        -0.0049    1.3733   48.2365 H       1  ZINC000854704989    0.0700
     32 H32        -0.9294    0.4871   49.4750 H       1  ZINC000854704989    0.0700
     33 H33        -0.0203   -1.0328   47.7047 H       1  ZINC000854704989    0.0800
     34 H34        -1.8004   -1.0510   47.7589 H       1  ZINC000854704989    0.0700
     35 H35        -0.0739    0.5650   45.8276 H       1  ZINC000854704989    0.0500
     36 H36        -1.0255   -0.8841   45.4231 H       1  ZINC000854704989    0.1000
     37 H37        -3.0422    2.5811   46.3979 H       1  ZINC000854704989    0.1000
     38 H38        -1.2622    2.6067   46.4027 H       1  ZINC000854704989    0.0500
     39 H39        -3.2737    2.0930   50.5289 H       1  ZINC000854704989    0.1400
@<TRIPOS>BOND
     1     1     2    2
     2     2     3   am
     3     2    11    1
     4     3     4    1
     5     3    24    1
     6     4     5    1
     7     4    25    1
     8     4    26    1
     9     5    10    1
    10     5     6    2
    11     6     7    1
    12     6    27    1
    13     7     8    1
    14     7     9    2
    15     9    10    1
    16    11    23   ar
    17    11    12   ar
    18    12    13   ar
    19    12    28    1
    20    13    14   ar
    21    13    29    1
    22    14    15   ar
    23    14    30    1
    24    15    16    1
    25    15    23   ar
    26    16    17    1
    27    16    22    1
    28    16    18    1
    29    18    19    1
    30    18    31    1
    31    18    32    1
    32    19    20    1
    33    19    33    1
    34    19    34    1
    35    20    21    1
    36    20    35    1
    37    20    36    1
    38    21    22    1
    39    22    37    1
    40    22    38    1
    41    23    39    1
@<TRIPOS>SUBSTRUCTURE
     1 ZINC000854704989        1 TEMP              0 ****  ****    0 ROOT


##########                                Name:    ZINC000492313853
##########                DOCK_Rotatable_Bonds:                   8
##########                         Heavy_Atoms:                  30
##########                    Molecular_Weight:             418.422
##########                DOCK_Rotatable_Bonds:                   8
##########                       Formal_Charge:          -0.0100008
##########                     HBond_Acceptors:                  10
##########                        HBond_Donors:                   2
##########                         Heavy_Atoms:                  30
##########                          Grid_Score:          -29.019527
##########                     Grid_vdw_energy:          -24.917084
##########                      Grid_es_energy:           -4.102445
##########           Internal_energy_repulsive:           16.030680

@<TRIPOS>MOLECULE
ZINC000492313853
 51 53 1 0 0
SMALL
USER_CHARGES


@<TRIPOS>ATOM
      1 C1         -7.2194    4.8660   68.3950 C.3     1  ZINC000492313853    0.0900
      2 N2         -6.3701    4.0682   67.5070 N.pl3   1  ZINC000492313853   -0.6200
      3 C3         -4.9907    4.4849   67.2434 C.3     1  ZINC000492313853    0.1000
      4 C4         -6.8733    2.9157   66.9146 C.ar    1  ZINC000492313853    0.4100
      5 C5         -8.1861    2.5295   67.1638 C.ar    1  ZINC000492313853   -0.2400
      6 C6         -8.6740    1.3806   66.5673 C.ar    1  ZINC000492313853   -0.0100
      7 C7         -7.8295    0.6541   65.7388 C.ar    1  ZINC000492313853   -0.2300
      8 C8         -8.3184   -0.6034   65.0675 C.3     1  ZINC000492313853    0.2000
      9 N9         -7.5868   -0.8041   63.8142 N.am    1  ZINC000492313853   -0.7300
     10 C10        -8.0771   -0.3081   62.6609 C.2     1  ZINC000492313853    0.7100
     11 O11        -9.1259    0.3071   62.6608 O.2     1  ZINC000492313853   -0.5600
     12 N12        -7.4048   -0.4942   61.5076 N.am    1  ZINC000492313853   -0.6600
     13 C13        -7.9131    0.0178   60.3135 C.2     1  ZINC000492313853    0.3300
     14 C14        -8.5447   -0.6918   59.3418 C.2     1  ZINC000492313853   -0.2600
     15 C15        -8.8942    0.2037   58.3138 C.2     1  ZINC000492313853    0.1200
     16 C16        -9.6013   -0.1467   57.0568 C.ar    1  ZINC000492313853   -0.0100
     17 C17       -10.8334   -0.7950   57.1052 C.ar    1  ZINC000492313853   -0.0600
     18 C18       -11.4870   -1.1182   55.9330 C.ar    1  ZINC000492313853   -0.1200
     19 C19       -10.9207   -0.7995   54.7122 C.ar    1  ZINC000492313853   -0.0700
     20 C20        -9.6974   -0.1556   54.6583 C.ar    1  ZINC000492313853   -0.1900
     21 C21        -9.0868    0.1889   53.3243 C.3     1  ZINC000492313853    0.5100
     22 F22        -8.2863    1.3285   53.4582 F       1  ZINC000492313853   -0.1800
     23 F23        -8.3036   -0.8815   52.8796 F       1  ZINC000492313853   -0.1800
     24 F24       -10.1037    0.4398   52.3968 F       1  ZINC000492313853   -0.1800
     25 C25        -9.0379    0.1767   55.8241 C.ar    1  ZINC000492313853   -0.0400
     26 N26        -8.4853    1.4056   58.6605 N.2     1  ZINC000492313853   -0.2700
     27 N27        -7.8709    1.3163   59.9158 N.pl3   1  ZINC000492313853   -0.3900
     28 C28        -7.2778    2.4269   60.6649 C.3     1  ZINC000492313853    0.1000
     29 C29        -6.5372    1.0958   65.5356 C.ar    1  ZINC000492313853    0.1700
     30 N30        -6.1001    2.1984   66.1137 N.ar    1  ZINC000492313853   -0.5400
     31 H31        -7.7510    5.6174   67.8111 H       1  ZINC000492313853    0.0600
     32 H32        -7.9394    4.2149   68.8909 H       1  ZINC000492313853    0.0700
     33 H33        -6.5997    5.3593   69.1439 H       1  ZINC000492313853    0.0700
     34 H34        -4.7777    5.4034   67.7905 H       1  ZINC000492313853    0.0700
     35 H35        -4.3060    3.7015   67.5683 H       1  ZINC000492313853    0.0600
     36 H36        -4.8618    4.6601   66.1753 H       1  ZINC000492313853    0.0600
     37 H37        -8.8157    3.1182   67.8143 H       1  ZINC000492313853    0.1300
     38 H38        -9.6891    1.0558   66.7426 H       1  ZINC000492313853    0.1400
     39 H39        -8.1510   -1.4556   65.7263 H       1  ZINC000492313853    0.0800
     40 H40        -9.3836   -0.5116   64.8558 H       1  ZINC000492313853    0.0800
     41 H41        -6.7496   -1.2940   63.8144 H       1  ZINC000492313853    0.4000
     42 H42        -6.5675   -0.9839   61.5079 H       1  ZINC000492313853    0.4100
     43 H43        -8.7424   -1.7534   59.3556 H       1  ZINC000492313853    0.1800
     44 H44       -11.2763   -1.0447   58.0580 H       1  ZINC000492313853    0.1400
     45 H45       -12.4420   -1.6211   55.9694 H       1  ZINC000492313853    0.1400
     46 H46       -11.4353   -1.0543   53.7975 H       1  ZINC000492313853    0.1400
     47 H47        -8.0830    0.6794   55.7809 H       1  ZINC000492313853    0.1400
     48 H48        -8.0352    2.8786   61.3055 H       1  ZINC000492313853    0.0800
     49 H49        -6.4579    2.0542   61.2789 H       1  ZINC000492313853    0.0800
     50 H50        -6.8990    3.1742   59.9676 H       1  ZINC000492313853    0.1000
     51 H51        -5.8768    0.5338   64.8918 H       1  ZINC000492313853    0.1600
@<TRIPOS>BOND
     1     1     2    1
     2     1    31    1
     3     1    32    1
     4     1    33    1
     5     2     3    1
     6     2     4    1
     7     3    34    1
     8     3    35    1
     9     3    36    1
    10     4    30   ar
    11     4     5   ar
    12     5     6   ar
    13     5    37    1
    14     6     7   ar
    15     6    38    1
    16     7     8    1
    17     7    29   ar
    18     8     9    1
    19     8    39    1
    20     8    40    1
    21     9    10   am
    22     9    41    1
    23    10    11    2
    24    10    12   am
    25    12    13    1
    26    12    42    1
    27    13    27    1
    28    13    14    2
    29    14    15    1
    30    14    43    1
    31    15    16    1
    32    15    26    2
    33    16    25   ar
    34    16    17   ar
    35    17    18   ar
    36    17    44    1
    37    18    19   ar
    38    18    45    1
    39    19    20   ar
    40    19    46    1
    41    20    21    1
    42    20    25   ar
    43    21    22    1
    44    21    23    1
    45    21    24    1
    46    25    47    1
    47    26    27    1
    48    27    28    1
    49    28    48    1
    50    28    49    1
    51    28    50    1
    52    29    30   ar
    53    29    51    1
@<TRIPOS>SUBSTRUCTURE
     1 ZINC000492313853        1 TEMP              0 ****  ****    0 ROOT


##########                                Name:    ZINC000347662449
##########                DOCK_Rotatable_Bonds:                   5
##########                         Heavy_Atoms:                  23
##########                    Molecular_Weight:              327.45
##########                DOCK_Rotatable_Bonds:                   5
##########                       Formal_Charge:                0.03
##########                     HBond_Acceptors:                   5
##########                        HBond_Donors:                   0
##########                         Heavy_Atoms:                  23
##########                          Grid_Score:          -29.018890
##########                     Grid_vdw_energy:          -28.240826
##########                      Grid_es_energy:           -0.778065
##########           Internal_energy_repulsive:            9.177914

@<TRIPOS>MOLECULE
ZINC000347662449
 44 46 1 0 0
SMALL
USER_CHARGES


@<TRIPOS>ATOM
      1 C1        -10.1227   -0.6895   51.7242 C.2     1  ZINC000347662449   -0.1800
      2 C2        -10.1984    0.5385   52.1743 C.2     1  ZINC000347662449   -0.1700
      3 C3         -8.9519    1.2518   52.6308 C.3     1  ZINC000347662449    0.1600
      4 N4         -8.9157    1.2830   54.0950 N.am    1  ZINC000347662449   -0.6200
      5 C5         -8.5074    2.4481   54.8886 C.3     1  ZINC000347662449    0.1100
      6 C6         -9.0334    2.1793   56.3161 C.3     1  ZINC000347662449   -0.1100
      7 C7         -9.1062    0.6349   56.3395 C.3     1  ZINC000347662449   -0.1200
      8 H8         -8.1899    0.2161   56.7556 H       1  ZINC000347662449    0.1400
      9 S9        -10.5429    0.0828   57.2921 S.3     1  ZINC000347662449    0.0300
     10 C10        -9.7311   -0.7621   58.6081 C.2     1  ZINC000347662449    0.1900
     11 N11        -8.4644   -0.6433   58.9317 N.2     1  ZINC000347662449   -0.4500
     12 C12        -8.1974   -1.4350   59.9842 C.2     1  ZINC000347662449   -0.0100
     13 C13        -9.3283   -2.0712   60.3343 C.2     1  ZINC000347662449   -0.0400
     14 N14       -10.3130   -1.6465   59.4679 N.pl3   1  ZINC000347662449   -0.4000
     15 C15       -11.6548   -2.0527   59.4659 C.ar    1  ZINC000347662449    0.1100
     16 C16       -12.5890   -1.3705   60.2331 C.ar    1  ZINC000347662449   -0.1100
     17 C17       -13.9105   -1.7731   60.2291 C.ar    1  ZINC000347662449   -0.1000
     18 C18       -14.3029   -2.8543   59.4620 C.ar    1  ZINC000347662449   -0.0800
     19 C19       -15.7454   -3.2906   59.4595 C.3     1  ZINC000347662449   -0.1200
     20 C20       -13.3744   -3.5360   58.6966 C.ar    1  ZINC000347662449   -0.0700
     21 C21       -13.8061   -4.7140   57.8618 C.3     1  ZINC000347662449   -0.1200
     22 C22       -12.0530   -3.1347   58.6920 C.ar    1  ZINC000347662449   -0.1100
     23 C23        -9.2574    0.2500   54.8843 C.2     1  ZINC000347662449    0.5300
     24 O24        -9.6264   -0.8351   54.4875 O.2     1  ZINC000347662449   -0.4900
     25 H25        -9.1670   -1.1906   51.6803 H       1  ZINC000347662449    0.1000
     26 H26       -11.0166   -1.2022   51.4011 H       1  ZINC000347662449    0.1000
     27 H27       -11.1541    1.0395   52.2181 H       1  ZINC000347662449    0.1100
     28 H28        -8.0741    0.7249   52.2568 H       1  ZINC000347662449    0.0900
     29 H29        -8.9551    2.2714   52.2456 H       1  ZINC000347662449    0.0900
     30 H30        -7.4211    2.5367   54.8974 H       1  ZINC000347662449    0.0800
     31 H31        -8.9574    3.3554   54.4855 H       1  ZINC000347662449    0.0900
     32 H32        -8.3333    2.5481   57.0657 H       1  ZINC000347662449    0.1100
     33 H33       -10.0210    2.6185   56.4571 H       1  ZINC000347662449    0.0900
     34 H34        -7.2372   -1.5418   60.4668 H       1  ZINC000347662449    0.1800
     35 H35        -9.4444   -2.7778   61.1427 H       1  ZINC000347662449    0.1800
     36 H36       -12.2831   -0.5260   60.8328 H       1  ZINC000347662449    0.1300
     37 H37       -14.6378   -1.2429   60.8261 H       1  ZINC000347662449    0.1300
     38 H38       -16.2821   -2.7666   58.6686 H       1  ZINC000347662449    0.0800
     39 H39       -15.7996   -4.3652   59.2850 H       1  ZINC000347662449    0.0700
     40 H40       -16.1977   -3.0556   60.4229 H       1  ZINC000347662449    0.0700
     41 H41       -14.0996   -4.3688   56.8704 H       1  ZINC000347662449    0.0800
     42 H42       -12.9788   -5.4180   57.7713 H       1  ZINC000347662449    0.0700
     43 H43       -14.6523   -5.2075   58.3399 H       1  ZINC000347662449    0.0800
     44 H44       -11.3283   -3.6672   58.0940 H       1  ZINC000347662449    0.1300
@<TRIPOS>BOND
     1     1     2    2
     2     1    25    1
     3     1    26    1
     4     2     3    1
     5     2    27    1
     6     3     4    1
     7     3    28    1
     8     3    29    1
     9     4    23   am
    10     4     5    1
    11     5     6    1
    12     5    30    1
    13     5    31    1
    14     6     7    1
    15     6    32    1
    16     6    33    1
    17     7     8    1
    18     7     9    1
    19     7    23    1
    20     9    10    1
    21    10    14    1
    22    10    11    2
    23    11    12    1
    24    12    13    2
    25    12    34    1
    26    13    14    1
    27    13    35    1
    28    14    15    1
    29    15    22   ar
    30    15    16   ar
    31    16    17   ar
    32    16    36    1
    33    17    18   ar
    34    17    37    1
    35    18    19    1
    36    18    20   ar
    37    19    38    1
    38    19    39    1
    39    19    40    1
    40    20    21    1
    41    20    22   ar
    42    21    41    1
    43    21    42    1
    44    21    43    1
    45    22    44    1
    46    23    24    2
@<TRIPOS>SUBSTRUCTURE
     1 ZINC000347662449        1 TEMP              0 ****  ****    0 ROOT


##########                                Name:    ZINC000523878927
##########                DOCK_Rotatable_Bonds:                   8
##########                         Heavy_Atoms:                  27
##########                    Molecular_Weight:             376.474
##########                DOCK_Rotatable_Bonds:                   8
##########                       Formal_Charge:          0.00999957
##########                     HBond_Acceptors:                   7
##########                        HBond_Donors:                   3
##########                         Heavy_Atoms:                  27
##########                          Grid_Score:          -28.956404
##########                     Grid_vdw_energy:          -28.876642
##########                      Grid_es_energy:           -0.079762
##########           Internal_energy_repulsive:            6.841139

@<TRIPOS>MOLECULE
ZINC000523878927
 56 58 1 0 0
SMALL
USER_CHARGES


@<TRIPOS>ATOM
      1 C1        -14.2166   -1.5225   61.8756 C.3     1  ZINC000523878927   -0.1500
      2 C2        -14.7756   -0.9929   60.5535 C.3     1  ZINC000523878927   -0.0900
      3 H3        -15.1558    0.0182   60.6988 H       1  ZINC000523878927    0.0700
      4 C4        -15.9116   -1.9018   60.0797 C.3     1  ZINC000523878927   -0.1200
      5 C5        -15.3779   -3.3211   59.8757 C.3     1  ZINC000523878927   -0.1200
      6 C6        -14.2673   -3.3021   58.8235 C.3     1  ZINC000523878927   -0.1100
      7 C7        -13.1314   -2.3933   59.2973 C.3     1  ZINC000523878927   -0.1000
      8 H8        -12.7330   -2.7705   60.2391 H       1  ZINC000523878927    0.0800
      9 C9        -12.0208   -2.3742   58.2450 C.3     1  ZINC000523878927    0.1400
     10 N10       -10.9504   -1.4739   58.6810 N.am    1  ZINC000523878927   -0.7400
     11 C11       -10.1973   -0.8302   57.7673 C.2     1  ZINC000523878927    0.7200
     12 O12       -10.4053   -0.9978   56.5811 O.2     1  ZINC000523878927   -0.5800
     13 N13        -9.2136   -0.0008   58.1684 N.am    1  ZINC000523878927   -0.6400
     14 C14        -8.8546    0.2929   59.5678 C.3     1  ZINC000523878927    0.1000
     15 C15        -7.3736    0.7434   59.5111 C.3     1  ZINC000523878927   -0.1400
     16 C16        -7.3424    1.5448   58.1828 C.3     1  ZINC000523878927    0.1500
     17 H17        -7.6953    2.5641   58.3390 H       1  ZINC000523878927    0.1100
     18 N18        -5.9938    1.5471   57.6105 N.am    1  ZINC000523878927   -0.7300
     19 C19        -5.6575    2.4641   56.6817 C.2     1  ZINC000523878927    0.7100
     20 O20        -6.4729    3.2904   56.3200 O.2     1  ZINC000523878927   -0.5700
     21 N21        -4.4173    2.4653   56.1541 N.am    1  ZINC000523878927   -0.6800
     22 C22        -4.0679    3.4182   55.1889 C.ar    1  ZINC000523878927    0.1500
     23 C23        -3.1558    4.4184   55.4979 C.ar    1  ZINC000523878927   -0.1200
     24 C24        -2.8122    5.3568   54.5446 C.ar    1  ZINC000523878927   -0.1300
     25 C25        -3.3770    5.3010   53.2816 C.ar    1  ZINC000523878927    0.0800
     26 F26        -3.0399    6.2201   52.3506 F       1  ZINC000523878927   -0.1400
     27 C27        -4.2864    4.3040   52.9714 C.ar    1  ZINC000523878927   -0.1300
     28 C28        -4.6287    3.3605   53.9202 C.ar    1  ZINC000523878927   -0.0900
     29 C29        -8.3167    0.7560   57.2828 C.3     1  ZINC000523878927    0.1200
     30 C30       -13.6650   -0.9739   59.5013 C.3     1  ZINC000523878927   -0.1100
     31 H31       -13.4072   -0.8750   62.2132 H       1  ZINC000523878927    0.0500
     32 H32       -15.0077   -1.5361   62.6252 H       1  ZINC000523878927    0.0500
     33 H33       -13.8363   -2.5336   61.7303 H       1  ZINC000523878927    0.0600
     34 H34       -16.7027   -1.9154   60.8293 H       1  ZINC000523878927    0.0600
     35 H35       -16.3098   -1.5245   59.1377 H       1  ZINC000523878927    0.0600
     36 H36       -14.9796   -3.6983   60.8175 H       1  ZINC000523878927    0.0700
     37 H37       -16.1872   -3.9685   59.5381 H       1  ZINC000523878927    0.0600
     38 H38       -13.8871   -4.3132   58.6782 H       1  ZINC000523878927    0.0600
     39 H39       -14.6656   -2.9248   57.8816 H       1  ZINC000523878927    0.0600
     40 H40       -11.6210   -3.3804   58.1204 H       1  ZINC000523878927    0.0700
     41 H41       -12.4259   -2.0239   57.2956 H       1  ZINC000523878927    0.0700
     42 H42       -10.7837   -1.3412   59.6273 H       1  ZINC000523878927    0.3900
     43 H43        -9.4804    1.0948   59.9595 H       1  ZINC000523878927    0.0800
     44 H44        -8.9557   -0.6024   60.1812 H       1  ZINC000523878927    0.0800
     45 H45        -7.1270    1.3826   60.3588 H       1  ZINC000523878927    0.1000
     46 H46        -6.7052   -0.1163   59.4645 H       1  ZINC000523878927    0.0800
     47 H47        -5.3430    0.8888   57.8999 H       1  ZINC000523878927    0.4000
     48 H48        -3.7668    1.8062   56.4428 H       1  ZINC000523878927    0.4100
     49 H49        -2.7156    4.4627   56.4832 H       1  ZINC000523878927    0.1400
     50 H50        -2.1027    6.1350   54.7845 H       1  ZINC000523878927    0.1400
     51 H51        -4.7259    4.2621   51.9856 H       1  ZINC000523878927    0.1400
     52 H52        -5.3378    2.5829   53.6777 H       1  ZINC000523878927    0.1500
     53 H53        -7.7589    0.0739   56.6412 H       1  ZINC000523878927    0.0700
     54 H54        -8.9007    1.4465   56.6743 H       1  ZINC000523878927    0.0800
     55 H55       -14.0633   -0.5967   58.5594 H       1  ZINC000523878927    0.0700
     56 H56       -12.8557   -0.3264   59.8388 H       1  ZINC000523878927    0.0700
@<TRIPOS>BOND
     1     1     2    1
     2     1    31    1
     3     1    32    1
     4     1    33    1
     5     2     3    1
     6     2    30    1
     7     2     4    1
     8     4     5    1
     9     4    34    1
    10     4    35    1
    11     5     6    1
    12     5    36    1
    13     5    37    1
    14     6     7    1
    15     6    38    1
    16     6    39    1
    17     7     8    1
    18     7     9    1
    19     7    30    1
    20     9    10    1
    21     9    40    1
    22     9    41    1
    23    10    11   am
    24    10    42    1
    25    11    12    2
    26    11    13   am
    27    13    29    1
    28    13    14    1
    29    14    15    1
    30    14    43    1
    31    14    44    1
    32    15    16    1
    33    15    45    1
    34    15    46    1
    35    16    17    1
    36    16    18    1
    37    16    29    1
    38    18    19   am
    39    18    47    1
    40    19    20    2
    41    19    21   am
    42    21    22    1
    43    21    48    1
    44    22    28   ar
    45    22    23   ar
    46    23    24   ar
    47    23    49    1
    48    24    25   ar
    49    24    50    1
    50    25    26    1
    51    25    27   ar
    52    27    28   ar
    53    27    51    1
    54    28    52    1
    55    29    53    1
    56    29    54    1
    57    30    55    1
    58    30    56    1
@<TRIPOS>SUBSTRUCTURE
     1 ZINC000523878927        1 TEMP              0 ****  ****    0 ROOT


##########                                Name:    ZINC000957079511
##########                DOCK_Rotatable_Bonds:                   8
##########                         Heavy_Atoms:                  25
##########                    Molecular_Weight:             362.453
##########                DOCK_Rotatable_Bonds:                   8
##########                       Formal_Charge:        -4.32134e-07
##########                     HBond_Acceptors:                   8
##########                        HBond_Donors:                   2
##########                         Heavy_Atoms:                  25
##########                          Grid_Score:          -28.945724
##########                     Grid_vdw_energy:          -28.670305
##########                      Grid_es_energy:           -0.275419
##########           Internal_energy_repulsive:            7.947810

@<TRIPOS>MOLECULE
ZINC000957079511
 47 49 1 0 0
SMALL
USER_CHARGES


@<TRIPOS>ATOM
      1 C1          0.0599   -0.3897   41.4000 C.3     1  ZINC000957079511   -0.0700
      2 C2          0.9035    0.3568   42.4012 C.2     1  ZINC000957079511    0.0300
      3 C3          0.4831    0.8418   43.5850 C.2     1  ZINC000957079511   -0.0200
      4 C4         -0.9088    0.7413   44.1537 C.3     1  ZINC000957079511   -0.0600
      5 C5         -0.8616    0.9756   45.6417 C.2     1  ZINC000957079511    0.5100
      6 O6         -0.4420    0.1090   46.3791 O.2     1  ZINC000957079511   -0.5200
      7 N7         -1.2858    2.1483   46.1530 N.am    1  ZINC000957079511   -0.7200
      8 C8         -1.2416    2.3755   47.5996 C.3     1  ZINC000957079511    0.1400
      9 H9         -0.4671    1.7660   48.0651 H       1  ZINC000957079511    0.1100
     10 C10        -2.6234    2.1068   48.2463 C.3     1  ZINC000957079511    0.0800
     11 N11        -2.6274    2.9167   49.4781 N.am    1  ZINC000957079511   -0.6200
     12 C12        -3.3773    2.6783   50.5724 C.2     1  ZINC000957079511    0.5400
     13 O13        -4.1317    1.7290   50.5955 O.2     1  ZINC000957079511   -0.5100
     14 C14        -3.2784    3.5915   51.7671 C.3     1  ZINC000957079511    0.0500
     15 O15        -4.5098    3.5628   52.4918 O.3     1  ZINC000957079511   -0.2800
     16 C16        -4.6164    4.3970   53.5634 C.2     1  ZINC000957079511    0.1200
     17 C17        -3.6255    5.2082   53.9452 C.2     1  ZINC000957079511   -0.3300
     18 S18        -4.1268    6.1277   55.3582 S.3     1  ZINC000957079511    0.1300
     19 C19        -5.6985    5.3384   55.3531 C.2     1  ZINC000957079511   -0.1800
     20 C20        -5.7634    4.4741   54.3386 C.2     1  ZINC000957079511   -0.1400
     21 C21        -1.6772    4.0268   49.3157 C.3     1  ZINC000957079511    0.1100
     22 C22        -1.0336    3.8792   47.9203 C.3     1  ZINC000957079511   -0.1100
     23 H23        -1.5487    4.5035   47.1900 H       1  ZINC000957079511    0.0900
     24 C24         0.4556    4.2262   47.9717 C.3     1  ZINC000957079511   -0.1400
     25 N25         1.5632    1.4431   44.1728 N.pl3   1  ZINC000957079511   -0.5600
     26 C26         2.6068    1.3046   43.3269 C.2     1  ZINC000957079511    0.2000
     27 N27         2.2060    0.6495   42.2717 N.2     1  ZINC000957079511   -0.4900
     28 H28         0.1017   -1.4577   41.6142 H       1  ZINC000957079511    0.0700
     29 H29        -0.9724   -0.0460   41.4666 H       1  ZINC000957079511    0.0600
     30 H30         0.4402   -0.2055   40.3953 H       1  ZINC000957079511    0.0700
     31 H31        -1.5469    1.4922   43.6878 H       1  ZINC000957079511    0.1000
     32 H32        -1.3117   -0.2518   43.9549 H       1  ZINC000957079511    0.1200
     33 H33        -1.6204    2.8420   45.5631 H       1  ZINC000957079511    0.4000
     34 H34        -3.4234    2.4274   47.5789 H       1  ZINC000957079511    0.0800
     35 H35        -2.7303    1.0492   48.4872 H       1  ZINC000957079511    0.0800
     36 H36        -2.4681    3.2562   52.4145 H       1  ZINC000957079511    0.0900
     37 H37        -3.0781    4.6089   51.4313 H       1  ZINC000957079511    0.0900
     38 H38        -2.6636    5.2870   53.4606 H       1  ZINC000957079511    0.1700
     39 H39        -6.4919    5.5277   56.0609 H       1  ZINC000957079511    0.1800
     40 H40        -6.6399    3.8747   54.1410 H       1  ZINC000957079511    0.1500
     41 H41        -2.2043    4.9785   49.3824 H       1  ZINC000957079511    0.0800
     42 H42        -0.9079    3.9719   50.0858 H       1  ZINC000957079511    0.0800
     43 H43         0.9567    3.5717   48.6847 H       1  ZINC000957079511    0.0600
     44 H44         0.8945    4.0906   46.9832 H       1  ZINC000957079511    0.0600
     45 H45         0.5763    5.2636   48.2836 H       1  ZINC000957079511    0.0700
     46 H46         1.5765    1.8861   45.0356 H       1  ZINC000957079511    0.4200
     47 H47         3.6082    1.6715   43.4973 H       1  ZINC000957079511    0.2100
@<TRIPOS>BOND
     1     1     2    1
     2     1    28    1
     3     1    29    1
     4     1    30    1
     5     2    27    1
     6     2     3    2
     7     3     4    1
     8     3    25    1
     9     4     5    1
    10     4    31    1
    11     4    32    1
    12     5     6    2
    13     5     7   am
    14     7     8    1
    15     7    33    1
    16     8     9    1
    17     8    22    1
    18     8    10    1
    19    10    11    1
    20    10    34    1
    21    10    35    1
    22    11    12   am
    23    11    21    1
    24    12    13    2
    25    12    14    1
    26    14    15    1
    27    14    36    1
    28    14    37    1
    29    15    16    1
    30    16    20    1
    31    16    17    2
    32    17    18    1
    33    17    38    1
    34    18    19    1
    35    19    20    2
    36    19    39    1
    37    20    40    1
    38    21    22    1
    39    21    41    1
    40    21    42    1
    41    22    23    1
    42    22    24    1
    43    24    43    1
    44    24    44    1
    45    24    45    1
    46    25    26    1
    47    25    46    1
    48    26    27    2
    49    26    47    1
@<TRIPOS>SUBSTRUCTURE
     1 ZINC000957079511        1 TEMP              0 ****  ****    0 ROOT


##########                                Name:    ZINC000504638019
##########                DOCK_Rotatable_Bonds:                   8
##########                         Heavy_Atoms:                  24
##########                    Molecular_Weight:             328.454
##########                DOCK_Rotatable_Bonds:                   8
##########                       Formal_Charge:        -1.49012e-08
##########                     HBond_Acceptors:                   4
##########                        HBond_Donors:                   1
##########                         Heavy_Atoms:                  24
##########                          Grid_Score:          -28.935684
##########                     Grid_vdw_energy:          -28.805134
##########                      Grid_es_energy:           -0.130550
##########           Internal_energy_repulsive:           17.220169

@<TRIPOS>MOLECULE
ZINC000504638019
 52 53 1 0 0
SMALL
USER_CHARGES


@<TRIPOS>ATOM
      1 C1          1.5187   -2.4819   49.1420 C.3     1  ZINC000504638019   -0.1200
      2 C2          0.9046   -1.3178   48.4080 C.ar    1  ZINC000504638019   -0.0900
      3 C3          1.7160   -0.3589   47.8308 C.ar    1  ZINC000504638019   -0.1200
      4 C4          1.1528    0.7089   47.1576 C.ar    1  ZINC000504638019   -0.1100
      5 C5         -0.2220    0.8177   47.0612 C.ar    1  ZINC000504638019   -0.0900
      6 C6         -0.8361    1.9821   46.3277 C.3     1  ZINC000504638019   -0.0600
      7 H7         -0.0738    2.7395   46.1452 H       1  ZINC000504638019    0.0900
      8 C8         -1.4061    1.5001   44.9921 C.3     1  ZINC000504638019   -0.1500
      9 C9         -1.9597    2.5830   47.1746 C.3     1  ZINC000504638019    0.1300
     10 N10        -1.4061    3.0867   48.4340 N.am    1  ZINC000504638019   -0.7000
     11 C11        -2.0841    2.9124   49.5857 C.2     1  ZINC000504638019    0.5100
     12 O12        -3.1525    2.3371   49.5797 O.2     1  ZINC000504638019   -0.5100
     13 C13        -1.5202    3.4278   50.8702 C.2     1  ZINC000504638019    0.5100
     14 O14        -0.3993    3.1115   51.2110 O.2     1  ZINC000504638019   -0.5200
     15 N15        -2.2565    4.2440   51.6500 N.am    1  ZINC000504638019   -0.5800
     16 C16        -3.6096    4.6260   51.2386 C.3     1  ZINC000504638019    0.0600
     17 C17        -1.7037    4.7492   52.9091 C.3     1  ZINC000504638019    0.1100
     18 C18        -2.7243    4.5485   54.0311 C.3     1  ZINC000504638019   -0.1000
     19 H19        -3.6677    5.0206   53.7570 H       1  ZINC000504638019    0.0800
     20 C20        -2.1949    5.1701   55.3253 C.3     1  ZINC000504638019   -0.0800
     21 C21        -3.0514    4.7557   56.4859 C.2     1  ZINC000504638019   -0.1500
     22 C22        -3.8729    3.7558   56.4603 C.2     1  ZINC000504638019   -0.1600
     23 C23        -4.0912    2.8772   55.2634 C.3     1  ZINC000504638019   -0.0900
     24 C24        -2.9467    3.0486   54.2636 C.3     1  ZINC000504638019   -0.1100
     25 C25        -1.0333   -0.1419   47.6372 C.ar    1  ZINC000504638019   -0.1100
     26 C26        -0.4699   -1.2118   48.3072 C.ar    1  ZINC000504638019   -0.1200
     27 H27         1.6895   -3.3020   48.4445 H       1  ZINC000504638019    0.0700
     28 H28         2.4681   -2.1748   49.5809 H       1  ZINC000504638019    0.0700
     29 H29         0.8431   -2.8111   49.9314 H       1  ZINC000504638019    0.0700
     30 H30         2.7900   -0.4439   47.9061 H       1  ZINC000504638019    0.1200
     31 H31         1.7866    1.4584   46.7073 H       1  ZINC000504638019    0.1200
     32 H32        -1.8503    2.3423   44.4616 H       1  ZINC000504638019    0.0600
     33 H33        -0.6057    1.0720   44.3887 H       1  ZINC000504638019    0.0600
     34 H34        -2.1684    0.7427   45.1745 H       1  ZINC000504638019    0.0600
     35 H35        -2.4269    3.4031   46.6294 H       1  ZINC000504638019    0.0800
     36 H36        -2.7050    1.8162   47.3862 H       1  ZINC000504638019    0.0800
     37 H37        -0.5514    3.5455   48.4390 H       1  ZINC000504638019    0.4100
     38 H38        -4.3135    3.8499   51.5392 H       1  ZINC000504638019    0.0600
     39 H39        -3.8820    5.5677   51.7149 H       1  ZINC000504638019    0.0700
     40 H40        -3.6402    4.7443   50.1554 H       1  ZINC000504638019    0.1100
     41 H41        -0.7893    4.2063   53.1483 H       1  ZINC000504638019    0.0900
     42 H42        -1.4796    5.8110   52.8074 H       1  ZINC000504638019    0.0900
     43 H43        -1.1712    4.8358   55.4943 H       1  ZINC000504638019    0.0800
     44 H44        -2.2081    6.2563   55.2362 H       1  ZINC000504638019    0.0600
     45 H45        -2.9775    5.3272   57.3992 H       1  ZINC000504638019    0.1000
     46 H46        -4.4362    3.5400   57.3562 H       1  ZINC000504638019    0.1000
     47 H47        -4.1397    1.8362   55.5833 H       1  ZINC000504638019    0.0700
     48 H48        -5.0304    3.1492   54.7820 H       1  ZINC000504638019    0.0700
     49 H49        -3.2055    2.5615   53.3234 H       1  ZINC000504638019    0.0700
     50 H50        -2.0362    2.6079   54.6696 H       1  ZINC000504638019    0.0700
     51 H51        -2.1074   -0.0572   47.5616 H       1  ZINC000504638019    0.1200
     52 H52        -1.1038   -1.9615   48.7572 H       1  ZINC000504638019    0.1200
@<TRIPOS>BOND
     1     1     2    1
     2     1    27    1
     3     1    28    1
     4     1    29    1
     5     2    26   ar
     6     2     3   ar
     7     3     4   ar
     8     3    30    1
     9     4     5   ar
    10     4    31    1
    11     5     6    1
    12     5    25   ar
    13     6     7    1
    14     6     8    1
    15     6     9    1
    16     8    32    1
    17     8    33    1
    18     8    34    1
    19     9    10    1
    20     9    35    1
    21     9    36    1
    22    10    11   am
    23    10    37    1
    24    11    12    2
    25    11    13    1
    26    13    14    2
    27    13    15   am
    28    15    16    1
    29    15    17    1
    30    16    38    1
    31    16    39    1
    32    16    40    1
    33    17    18    1
    34    17    41    1
    35    17    42    1
    36    18    19    1
    37    18    24    1
    38    18    20    1
    39    20    21    1
    40    20    43    1
    41    20    44    1
    42    21    22    2
    43    21    45    1
    44    22    23    1
    45    22    46    1
    46    23    24    1
    47    23    47    1
    48    23    48    1
    49    24    49    1
    50    24    50    1
    51    25    26   ar
    52    25    51    1
    53    26    52    1
@<TRIPOS>SUBSTRUCTURE
     1 ZINC000504638019        1 TEMP              0 ****  ****    0 ROOT


##########                                Name:    ZINC000285228948
##########                DOCK_Rotatable_Bonds:                   8
##########                         Heavy_Atoms:                  23
##########                    Molecular_Weight:             339.822
##########                DOCK_Rotatable_Bonds:                   8
##########                       Formal_Charge:           0.0299997
##########                     HBond_Acceptors:                   7
##########                        HBond_Donors:                   3
##########                         Heavy_Atoms:                  23
##########                          Grid_Score:          -28.926641
##########                     Grid_vdw_energy:          -27.866453
##########                      Grid_es_energy:           -1.060188
##########           Internal_energy_repulsive:           21.001087

@<TRIPOS>MOLECULE
ZINC000285228948
 45 46 1 0 0
SMALL
USER_CHARGES


@<TRIPOS>ATOM
      1 C1         -1.6822    5.8956   52.5584 C.3     1  <0>        -0.1600
      2 C2         -2.0522    4.4349   52.2928 C.3     1  <0>         0.1800
      3 H3         -2.5162    4.3505   51.3102 H       1  <0>         0.1100
      4 C4         -3.0193    3.9621   53.3474 C.ar    1  <0>        -0.0900
      5 C5         -4.1187    3.2051   52.9873 C.ar    1  <0>        -0.1000
      6 C6         -5.0060    2.7712   53.9540 C.ar    1  <0>        -0.1100
      7 C7         -4.7939    3.0946   55.2824 C.ar    1  <0>        -0.0300
      8 Cl8        -5.9077    2.5495   56.4973 Cl      1  <0>        -0.0700
      9 C9         -3.6935    3.8522   55.6422 C.ar    1  <0>        -0.1100
     10 C10        -2.8038    4.2807   54.6752 C.ar    1  <0>        -0.0900
     11 N11        -0.8425    3.6095   52.3342 N.am    1  <0>        -0.6100
     12 C12        -0.0599    3.5183   53.5692 C.3     1  <0>         0.0600
     13 C13        -0.4498    2.9341   51.2360 C.2     1  <0>         0.5200
     14 O14         0.5526    2.2519   51.2698 O.2     1  <0>        -0.5200
     15 C15        -1.2558    3.0264   49.9661 C.3     1  <0>         0.0300
     16 N16        -0.6939    2.1133   48.9619 N.3     1  <0>        -0.4900
     17 C17         0.0896    2.8587   47.9439 C.3     1  <0>         0.0400
     18 C18         0.1390    1.8772   46.7460 C.3     1  <0>        -0.1400
     19 C19        -1.2627    1.2260   46.7747 C.3     1  <0>         0.1100
     20 O20        -2.1339    1.8831   45.8520 O.3     1  <0>        -0.5400
     21 C21        -1.1647   -0.2414   46.4456 C.2     1  <0>         0.5000
     22 N22        -0.6889   -1.1072   47.3623 N.am    1  <0>        -0.8500
     23 O23        -1.5139   -0.6431   45.3558 O.2     1  <0>        -0.5200
     24 C24        -1.7670    1.4199   48.2167 C.3     1  <0>         0.0600
     25 H25        -2.5822    6.5097   52.5276 H       1  <0>         0.0700
     26 H26        -1.2181    5.9800   53.5410 H       1  <0>         0.0600
     27 H27        -0.9827    6.2376   51.7956 H       1  <0>         0.0700
     28 H28        -4.2842    2.9531   51.9503 H       1  <0>         0.1400
     29 H29        -5.8650    2.1802   53.6725 H       1  <0>         0.1300
     30 H30        -3.5276    4.1051   56.6789 H       1  <0>         0.1400
     31 H31        -1.9446    4.8718   54.9561 H       1  <0>         0.1300
     32 H32        -0.4543    2.7144   54.1908 H       1  <0>         0.0600
     33 H33         0.9819    3.3108   53.3247 H       1  <0>         0.0800
     34 H34        -0.1248    4.4618   54.1111 H       1  <0>         0.0800
     35 H35        -2.2899    2.7492   50.1712 H       1  <0>         0.1100
     36 H36        -1.2218    4.0481   49.5877 H       1  <0>         0.0700
     37 H37        -0.4206    3.7806   47.6649 H       1  <0>         0.0400
     38 H38         1.0943    3.0695   48.3102 H       1  <0>         0.1200
     39 H39         0.2949    2.4164   45.8116 H       1  <0>         0.0900
     40 H40         0.9160    1.1271   46.8938 H       1  <0>         0.0900
     41 H41        -2.7003    1.2818   45.3493 H       1  <0>         0.3800
     42 H42        -0.6247   -2.0515   47.1502 H       1  <0>         0.4000
     43 H43        -0.4107   -0.7860   48.2344 H       1  <0>         0.4100
     44 H44        -1.9695    0.4508   48.6728 H       1  <0>         0.1100
     45 H45        -2.6712    2.0287   48.2152 H       1  <0>         0.0700
@<TRIPOS>BOND
     1     1     2    1
     2     1    25    1
     3     1    26    1
     4     1    27    1
     5     2     3    1
     6     2     4    1
     7     2    11    1
     8     4    10   ar
     9     4     5   ar
    10     5     6   ar
    11     5    28    1
    12     6     7   ar
    13     6    29    1
    14     7     8    1
    15     7     9   ar
    16     9    10   ar
    17     9    30    1
    18    10    31    1
    19    11    12    1
    20    11    13   am
    21    12    32    1
    22    12    33    1
    23    12    34    1
    24    13    14    2
    25    13    15    1
    26    15    16    1
    27    15    35    1
    28    15    36    1
    29    16    24    1
    30    16    17    1
    31    17    18    1
    32    17    37    1
    33    17    38    1
    34    18    19    1
    35    18    39    1
    36    18    40    1
    37    19    20    1
    38    19    21    1
    39    19    24    1
    40    20    41    1
    41    21    22   am
    42    21    23    2
    43    22    42    1
    44    22    43    1
    45    24    44    1
    46    24    45    1
@<TRIPOS>SUBSTRUCTURE
     1 <0>         1 TEMP              0 ****  ****    0 ROOT


##########                                Name:    ZINC000611836474
##########                DOCK_Rotatable_Bonds:                   7
##########                         Heavy_Atoms:                  22
##########                    Molecular_Weight:             366.258
##########                DOCK_Rotatable_Bonds:                   7
##########                       Formal_Charge:          -0.0300004
##########                     HBond_Acceptors:                   5
##########                        HBond_Donors:                   1
##########                         Heavy_Atoms:                  22
##########                          Grid_Score:          -28.926527
##########                     Grid_vdw_energy:          -29.124155
##########                      Grid_es_energy:            0.197629
##########           Internal_energy_repulsive:            6.977787

@<TRIPOS>MOLECULE
ZINC000611836474
 42 43 1 0 0
SMALL
USER_CHARGES


@<TRIPOS>ATOM
      1 C1          4.6727    1.9891   47.8511 C.3     1  ZINC000611836474   -0.1500
      2 C2          3.6450    1.0468   48.4813 C.3     1  ZINC000611836474   -0.1400
      3 C3          2.8256    0.3744   47.3781 C.3     1  ZINC000611836474    0.1300
      4 N4          1.7529   -0.4200   47.9818 N.pl3   1  ZINC000611836474   -0.3900
      5 N5          1.8473   -1.7561   48.3915 N.2     1  ZINC000611836474   -0.2900
      6 C6          0.6898   -2.1201   48.8811 C.2     1  ZINC000611836474    0.0600
      7 C7         -0.1830   -1.0315   48.8014 C.2     1  ZINC000611836474   -0.2800
      8 C8          0.4979    0.0087   48.2474 C.2     1  ZINC000611836474    0.3000
      9 N9         -0.0089    1.2828   47.9922 N.am    1  ZINC000611836474   -0.6500
     10 C10        -1.2189    1.4237   47.4154 C.2     1  ZINC000611836474    0.5200
     11 O11        -1.8678    0.4425   47.1197 O.2     1  ZINC000611836474   -0.4700
     12 C12        -1.7658    2.8004   47.1381 C.3     1  ZINC000611836474    0.0700
     13 H13        -2.8392    2.8097   47.3271 H       1  ZINC000611836474    0.1100
     14 C14        -1.5019    3.1692   45.6770 C.3     1  ZINC000611836474   -0.1800
     15 O15        -1.1234    3.7489   47.9924 O.3     1  ZINC000611836474   -0.2700
     16 C16        -1.8574    4.2490   49.0212 C.ar    1  ZINC000611836474    0.1500
     17 C17        -2.3192    3.4047   50.0197 C.ar    1  ZINC000611836474   -0.2000
     18 C18        -3.0653    3.9153   51.0648 C.ar    1  ZINC000611836474   -0.0600
     19 C19        -3.3523    5.2667   51.1155 C.ar    1  ZINC000611836474   -0.1100
     20 C20        -4.1666    5.8204   52.2563 C.3     1  ZINC000611836474   -0.1100
     21 C21        -2.8929    6.1113   50.1217 C.ar    1  ZINC000611836474   -0.0500
     22 C22        -2.1414    5.6068   49.0774 C.ar    1  ZINC000611836474   -0.1200
     23 Br23       -1.5134    6.7621   47.7185 Br      1  ZINC000611836474   -0.0300
     24 H24         5.2564    2.4681   48.6371 H       1  ZINC000611836474    0.0600
     25 H25         5.3369    1.4197   47.2009 H       1  ZINC000611836474    0.0600
     26 H26         4.1566    2.7506   47.2664 H       1  ZINC000611836474    0.0600
     27 H27         4.1611    0.2853   49.0661 H       1  ZINC000611836474    0.0800
     28 H28         2.9809    1.6161   49.1316 H       1  ZINC000611836474    0.0600
     29 H29         2.3927    1.1372   46.7309 H       1  ZINC000611836474    0.0800
     30 H30         3.4729   -0.2764   46.7901 H       1  ZINC000611836474    0.1000
     31 H31         0.4497   -3.0953   49.2783 H       1  ZINC000611836474    0.1900
     32 H32        -1.2132   -1.0171   49.1251 H       1  ZINC000611836474    0.1700
     33 H33         0.5094    2.0676   48.2299 H       1  ZINC000611836474    0.4100
     34 H34        -1.9919    2.4457   45.0254 H       1  ZINC000611836474    0.0800
     35 H35        -1.8974    4.1649   45.4765 H       1  ZINC000611836474    0.0800
     36 H36        -0.4284    3.1599   45.4881 H       1  ZINC000611836474    0.0800
     37 H37        -2.0962    2.3486   49.9804 H       1  ZINC000611836474    0.1400
     38 H38        -3.4250    3.2579   51.8425 H       1  ZINC000611836474    0.1300
     39 H39        -3.5014    6.1166   53.0674 H       1  ZINC000611836474    0.0700
     40 H40        -4.7298    6.6880   51.9130 H       1  ZINC000611836474    0.0700
     41 H41        -4.8576    5.0567   52.6136 H       1  ZINC000611836474    0.0700
     42 H42        -3.1184    7.1668   50.1636 H       1  ZINC000611836474    0.1400
@<TRIPOS>BOND
     1     1     2    1
     2     1    24    1
     3     1    25    1
     4     1    26    1
     5     2     3    1
     6     2    27    1
     7     2    28    1
     8     3     4    1
     9     3    29    1
    10     3    30    1
    11     4     8    1
    12     4     5    1
    13     5     6    2
    14     6     7    1
    15     6    31    1
    16     7     8    2
    17     7    32    1
    18     8     9    1
    19     9    10   am
    20     9    33    1
    21    10    11    2
    22    10    12    1
    23    12    13    1
    24    12    14    1
    25    12    15    1
    26    14    34    1
    27    14    35    1
    28    14    36    1
    29    15    16    1
    30    16    22   ar
    31    16    17   ar
    32    17    18   ar
    33    17    37    1
    34    18    19   ar
    35    18    38    1
    36    19    20    1
    37    19    21   ar
    38    20    39    1
    39    20    40    1
    40    20    41    1
    41    21    22   ar
    42    21    42    1
    43    22    23    1
@<TRIPOS>SUBSTRUCTURE
     1 ZINC000611836474        1 TEMP              0 ****  ****    0 ROOT


##########                                Name:    ZINC001207290212
##########                DOCK_Rotatable_Bonds:                   8
##########                         Heavy_Atoms:                  23
##########                    Molecular_Weight:             344.435
##########                DOCK_Rotatable_Bonds:                   8
##########                       Formal_Charge:               -0.03
##########                     HBond_Acceptors:                   9
##########                        HBond_Donors:                   2
##########                         Heavy_Atoms:                  23
##########                          Grid_Score:          -28.921888
##########                     Grid_vdw_energy:          -27.913023
##########                      Grid_es_energy:           -1.008865
##########           Internal_energy_repulsive:            6.873263

@<TRIPOS>MOLECULE
ZINC001207290212
 47 48 1 0 0
SMALL
USER_CHARGES


@<TRIPOS>ATOM
      1 C1         -3.1642    3.5282   55.5544 C.3     1  ZINC001207290212   -0.1500
      2 C2         -4.0926    2.3610   55.8963 C.3     1  ZINC001207290212   -0.6300
      3 S3         -5.6848    3.0055   56.4793 S.o2    1  ZINC001207290212    2.6100
      4 O4         -6.6154    1.9468   56.6597 O.2     1  ZINC001207290212   -0.9500
      5 O5         -5.4865    3.9863   57.4882 O.2     1  ZINC001207290212   -0.9500
      6 N6         -6.2816    3.8589   55.1917 N.am    1  ZINC001207290212   -1.1100
      7 C7         -6.5309    3.1821   53.9166 C.3     1  ZINC001207290212    0.0900
      8 C8         -7.9559    2.6932   53.8775 C.2     1  ZINC001207290212    0.5100
      9 O9         -8.8691    3.4898   53.8280 O.2     1  ZINC001207290212   -0.5300
     10 N10        -8.2155    1.3709   53.8975 N.am    1  ZINC001207290212   -0.7200
     11 C11        -9.6006    0.8956   53.8577 C.3     1  ZINC001207290212    0.1400
     12 H12       -10.1804    1.4809   53.1440 H       1  ZINC001207290212    0.1000
     13 C13       -10.2352    0.9800   55.2583 C.3     1  ZINC001207290212    0.0200
     14 N14       -10.5843   -0.3999   55.6603 N.3     1  ZINC001207290212   -0.5100
     15 C15       -11.8109   -0.4184   56.4684 C.3     1  ZINC001207290212    0.1300
     16 C16       -12.1012   -1.8301   56.9085 C.2     1  ZINC001207290212    0.0000
     17 C17       -11.4677   -2.5026   57.8836 C.2     1  ZINC001207290212   -0.0700
     18 O18       -12.0320   -3.7241   57.9541 O.3     1  ZINC001207290212   -0.2000
     19 C19       -12.9973   -3.7824   57.0269 C.2     1  ZINC001207290212    0.1900
     20 C20       -13.8860   -4.9694   56.7585 C.3     1  ZINC001207290212   -0.0600
     21 N21       -13.0452   -2.6416   56.3999 N.2     1  ZINC001207290212   -0.4700
     22 C22       -10.7689   -1.1558   54.3950 C.3     1  ZINC001207290212    0.0400
     23 C23        -9.6430   -0.6035   53.4824 C.3     1  ZINC001207290212   -0.1000
     24 H24        -8.6915   -1.0841   53.7100 H       1  ZINC001207290212    0.0900
     25 C25       -10.0021   -0.7895   52.0068 C.3     1  ZINC001207290212   -0.1400
     26 H26        -3.6183    4.1365   54.7722 H       1  ZINC001207290212    0.0700
     27 H27        -3.0055    4.1385   56.4434 H       1  ZINC001207290212    0.0700
     28 H28        -2.2075    3.1409   55.2041 H       1  ZINC001207290212    0.0800
     29 H29        -4.2512    1.7506   55.0072 H       1  ZINC001207290212    0.1300
     30 H30        -3.6385    1.7526   56.6784 H       1  ZINC001207290212    0.1300
     31 H31        -6.4661    4.8069   55.2818 H       1  ZINC001207290212    0.4300
     32 H32        -6.3635    3.8799   53.0961 H       1  ZINC001207290212    0.1000
     33 H33        -5.8531    2.3343   53.8167 H       1  ZINC001207290212    0.1100
     34 H34        -7.4851    0.7338   53.9384 H       1  ZINC001207290212    0.4100
     35 H35        -9.5208    1.4030   55.9647 H       1  ZINC001207290212    0.0800
     36 H36       -11.1344    1.5950   55.2223 H       1  ZINC001207290212    0.0500
     37 H37       -11.6779    0.2155   57.3451 H       1  ZINC001207290212    0.0600
     38 H38       -12.6440   -0.0448   55.8730 H       1  ZINC001207290212    0.1000
     39 H39       -10.6579   -2.1337   58.4958 H       1  ZINC001207290212    0.2100
     40 H40       -13.6234   -5.7808   57.4373 H       1  ZINC001207290212    0.0900
     41 H41       -14.9270   -4.6869   56.9157 H       1  ZINC001207290212    0.1000
     42 H42       -13.7506   -5.2992   55.7284 H       1  ZINC001207290212    0.1000
     43 H43       -10.6387   -2.2248   54.5631 H       1  ZINC001207290212    0.0900
     44 H44       -11.7483   -0.9496   53.9632 H       1  ZINC001207290212    0.0500
     45 H45       -10.9401   -0.2768   51.7936 H       1  ZINC001207290212    0.0600
     46 H46        -9.2103   -0.3719   51.3848 H       1  ZINC001207290212    0.0600
     47 H47       -10.1116   -1.8522   51.7907 H       1  ZINC001207290212    0.0600
@<TRIPOS>BOND
     1     1     2    1
     2     1    26    1
     3     1    27    1
     4     1    28    1
     5     2     3    1
     6     2    29    1
     7     2    30    1
     8     3     4    2
     9     3     5    2
    10     3     6   am
    11     6     7    1
    12     6    31    1
    13     7     8    1
    14     7    32    1
    15     7    33    1
    16     8     9    2
    17     8    10   am
    18    10    11    1
    19    10    34    1
    20    11    12    1
    21    11    23    1
    22    11    13    1
    23    13    14    1
    24    13    35    1
    25    13    36    1
    26    14    15    1
    27    14    22    1
    28    15    16    1
    29    15    37    1
    30    15    38    1
    31    16    21    1
    32    16    17    2
    33    17    18    1
    34    17    39    1
    35    18    19    1
    36    19    20    1
    37    19    21    2
    38    20    40    1
    39    20    41    1
    40    20    42    1
    41    22    23    1
    42    22    43    1
    43    22    44    1
    44    23    24    1
    45    23    25    1
    46    25    45    1
    47    25    46    1
    48    25    47    1
@<TRIPOS>SUBSTRUCTURE
     1 ZINC001207290212        1 TEMP              0 ****  ****    0 ROOT


##########                                Name:    ZINC000948289723
##########                DOCK_Rotatable_Bonds:                   6
##########                         Heavy_Atoms:                  24
##########                    Molecular_Weight:             331.415
##########                DOCK_Rotatable_Bonds:                   6
##########                       Formal_Charge:           0.0599999
##########                     HBond_Acceptors:                   6
##########                        HBond_Donors:                   1
##########                         Heavy_Atoms:                  24
##########                          Grid_Score:          -28.917135
##########                     Grid_vdw_energy:          -29.075058
##########                      Grid_es_energy:            0.157923
##########           Internal_energy_repulsive:            8.225903

@<TRIPOS>MOLECULE
ZINC000948289723
 49 52 1 0 0
SMALL
USER_CHARGES


@<TRIPOS>ATOM
      1 C1         -2.7059    6.3558   53.1668 C.3     1  ZINC000948289723   -0.1400
      2 C2         -2.6018    4.9257   52.6329 C.3     1  ZINC000948289723   -0.1100
      3 C3         -3.4620    4.6702   51.3840 C.3     1  ZINC000948289723   -0.1100
      4 C4         -2.2875    3.8387   50.8417 C.3     1  ZINC000948289723   -0.1400
      5 C5         -2.0393    4.0340   49.3681 C.2     1  ZINC000948289723    0.5400
      6 O6         -2.2901    5.1000   48.8470 O.2     1  ZINC000948289723   -0.5300
      7 N7         -1.5385    3.0241   48.6295 N.am    1  ZINC000948289723   -0.6200
      8 C8         -1.1910    1.6864   49.1307 C.3     1  ZINC000948289723    0.1100
      9 C9         -0.6849    0.8633   47.9274 C.3     1  ZINC000948289723   -0.1100
     10 H10         0.4036    0.8857   47.8754 H       1  ZINC000948289723    0.1000
     11 C11        -1.1916   -0.5782   48.0058 C.3     1  ZINC000948289723   -0.1400
     12 C12        -1.3077    1.6029   46.7139 C.3     1  ZINC000948289723    0.1400
     13 H13        -2.3375    1.2859   46.5497 H       1  ZINC000948289723    0.1200
     14 N14        -0.5012    1.4039   45.5072 N.am    1  ZINC000948289723   -0.7100
     15 C15        -0.8595    0.4703   44.6036 C.2     1  ZINC000948289723    0.6100
     16 O16        -1.8529   -0.2056   44.7892 O.2     1  ZINC000948289723   -0.5000
     17 C17        -0.0465    0.2686   43.3894 C.2     1  ZINC000948289723   -0.0900
     18 C18         1.0937    0.9405   43.0423 C.2     1  ZINC000948289723   -0.1400
     19 C19         1.4617    0.3654   41.8056 C.2     1  ZINC000948289723    0.0500
     20 C20         2.6560    0.7307   40.9621 C.3     1  ZINC000948289723   -0.0900
     21 C21         3.8232    1.4343   41.6575 C.3     1  ZINC000948289723   -0.1600
     22 C22         3.9609   -0.0254   41.2201 C.3     1  ZINC000948289723   -0.1600
     23 N23         0.5682   -0.5417   41.5371 N.2     1  ZINC000948289723   -0.3300
     24 O24        -0.2733   -0.6178   42.4017 O.3     1  ZINC000948289723    0.1200
     25 C25        -1.2542    3.0758   47.1838 C.3     1  ZINC000948289723    0.0900
     26 C26        -1.3733    4.6898   51.7386 C.3     1  ZINC000948289723   -0.1200
     27 H27        -2.7738    7.0517   52.3306 H       1  ZINC000948289723    0.0600
     28 H28        -3.5960    6.4474   53.7891 H       1  ZINC000948289723    0.0600
     29 H29        -1.8218    6.5870   53.7610 H       1  ZINC000948289723    0.0600
     30 H30        -2.7259    4.1731   53.4117 H       1  ZINC000948289723    0.0900
     31 H31        -4.3579    4.0823   51.5837 H       1  ZINC000948289723    0.0700
     32 H32        -3.6655    5.5695   50.8026 H       1  ZINC000948289723    0.1000
     33 H33        -2.3274    2.7879   51.1285 H       1  ZINC000948289723    0.1100
     34 H34        -0.4060    1.7646   49.8828 H       1  ZINC000948289723    0.0800
     35 H35        -2.0728    1.2109   49.5604 H       1  ZINC000948289723    0.0800
     36 H36        -2.2814   -0.5795   48.0267 H       1  ZINC000948289723    0.0600
     37 H37        -0.8442   -1.1334   47.1345 H       1  ZINC000948289723    0.0600
     38 H38        -0.8103   -1.0485   48.9122 H       1  ZINC000948289723    0.0700
     39 H39         0.2907    1.9440   45.3586 H       1  ZINC000948289723    0.4100
     40 H40         1.5952    1.7271   43.5864 H       1  ZINC000948289723    0.1800
     41 H41         2.4353    1.0176   39.9340 H       1  ZINC000948289723    0.1300
     42 H42         4.3707    2.1844   41.0868 H       1  ZINC000948289723    0.1100
     43 H43         3.7273    1.6330   42.7249 H       1  ZINC000948289723    0.1000
     44 H44         3.9555   -0.7870   41.9998 H       1  ZINC000948289723    0.1000
     45 H45         4.5989   -0.2356   40.3618 H       1  ZINC000948289723    0.1100
     46 H46        -2.0096    3.6669   46.6661 H       1  ZINC000948289723    0.0900
     47 H47        -0.2618    3.4928   47.0124 H       1  ZINC000948289723    0.0800
     48 H48        -1.0057    5.5944   51.2541 H       1  ZINC000948289723    0.0900
     49 H49        -0.5829    4.1177   52.2244 H       1  ZINC000948289723    0.0800
@<TRIPOS>BOND
     1     1     2    1
     2     1    27    1
     3     1    28    1
     4     1    29    1
     5     2    26    1
     6     2     3    1
     7     2    30    1
     8     3     4    1
     9     3    31    1
    10     3    32    1
    11     4     5    1
    12     4    26    1
    13     4    33    1
    14     5     6    2
    15     5     7   am
    16     7    25    1
    17     7     8    1
    18     8     9    1
    19     8    34    1
    20     8    35    1
    21     9    10    1
    22     9    11    1
    23     9    12    1
    24    11    36    1
    25    11    37    1
    26    11    38    1
    27    12    13    1
    28    12    14    1
    29    12    25    1
    30    14    15   am
    31    14    39    1
    32    15    16    2
    33    15    17    1
    34    17    24    1
    35    17    18    2
    36    18    19    1
    37    18    40    1
    38    19    20    1
    39    19    23    2
    40    20    22    1
    41    20    21    1
    42    20    41    1
    43    21    22    1
    44    21    42    1
    45    21    43    1
    46    22    44    1
    47    22    45    1
    48    23    24    1
    49    25    46    1
    50    25    47    1
    51    26    48    1
    52    26    49    1
@<TRIPOS>SUBSTRUCTURE
     1 ZINC000948289723        1 TEMP              0 ****  ****    0 ROOT


##########                                Name:    ZINC000151820600
##########                DOCK_Rotatable_Bonds:                  10
##########                         Heavy_Atoms:                  25
##########                    Molecular_Weight:             388.915
##########                DOCK_Rotatable_Bonds:                  10
##########                       Formal_Charge:           0.0499998
##########                     HBond_Acceptors:                   8
##########                        HBond_Donors:                   2
##########                         Heavy_Atoms:                  25
##########                          Grid_Score:          -28.898954
##########                     Grid_vdw_energy:          -27.518806
##########                      Grid_es_energy:           -1.380148
##########           Internal_energy_repulsive:           35.153641

@<TRIPOS>MOLECULE
ZINC000151820600
 50 50 1 0 0
SMALL
USER_CHARGES


@<TRIPOS>ATOM
      1 C1         -5.4158    3.5140   57.2304 C.3     1  ZINC000151820600   -0.4900
      2 S2         -3.9897    3.8707   56.1676 S.o     1  ZINC000151820600    1.2500
      3 O3         -3.7487    5.2710   56.1525 O.2     1  ZINC000151820600   -0.8500
      4 C4         -4.5581    3.3373   54.5296 C.3     1  ZINC000151820600   -0.4500
      5 C5         -3.4497    3.5763   53.5024 C.3     1  ZINC000151820600   -0.1100
      6 C6         -3.9286    3.1252   52.1210 C.3     1  ZINC000151820600    0.1200
      7 N7         -2.8903    3.4096   51.1273 N.am    1  ZINC000151820600   -0.7200
      8 C8         -2.8217    2.6795   49.9965 C.2     1  ZINC000151820600    0.5200
      9 O9         -3.6187    1.7860   49.8023 O.2     1  ZINC000151820600   -0.5200
     10 C10        -1.7549    2.9731   48.9736 C.3     1  ZINC000151820600    0.1900
     11 H11        -2.0660    3.8153   48.3556 H       1  ZINC000151820600    0.1300
     12 N12        -0.5018    3.3051   49.6563 N.am    1  ZINC000151820600   -0.6900
     13 C13         0.3558    4.1840   49.1010 C.2     1  ZINC000151820600    0.6600
     14 O14         0.0905    4.7001   48.0334 O.2     1  ZINC000151820600   -0.5600
     15 O15         1.5066    4.4903   49.7292 O.3     1  ZINC000151820600   -0.3600
     16 C16         2.4194    5.3813   49.0355 C.3     1  ZINC000151820600    0.1400
     17 C17         1.7252    6.7194   48.7734 C.3     1  ZINC000151820600   -0.1800
     18 C18         3.6616    5.6116   49.8984 C.3     1  ZINC000151820600   -0.1400
     19 C19         2.8330    4.7520   47.7037 C.3     1  ZINC000151820600   -0.1800
     20 C20        -1.5466    1.7609   48.1028 C.ar    1  ZINC000151820600   -0.1000
     21 C21        -2.0093    1.7580   46.8004 C.ar    1  ZINC000151820600   -0.0900
     22 C22        -1.8181    0.6464   46.0007 C.ar    1  ZINC000151820600   -0.1000
     23 C23        -1.1646   -0.4626   46.5034 C.ar    1  ZINC000151820600   -0.1000
     24 C24        -0.7012   -0.4603   47.8073 C.ar    1  ZINC000151820600   -0.0300
     25 Cl25        0.1203   -1.8530   48.4393 Cl      1  ZINC000151820600   -0.0600
     26 C26        -0.8878    0.6542   48.6050 C.ar    1  ZINC000151820600   -0.0900
     27 H27        -6.2794    4.0803   56.8818 H       1  ZINC000151820600    0.0800
     28 H28        -5.6404    2.4481   57.1915 H       1  ZINC000151820600    0.1100
     29 H29        -5.1845    3.7993   58.2567 H       1  ZINC000151820600    0.1100
     30 H30        -4.8041    2.2758   54.5582 H       1  ZINC000151820600    0.1200
     31 H31        -5.4431    3.9080   54.2485 H       1  ZINC000151820600    0.0900
     32 H32        -3.2043    4.6379   53.4730 H       1  ZINC000151820600    0.0800
     33 H33        -2.5642    3.0064   53.7840 H       1  ZINC000151820600    0.0900
     34 H34        -4.1312    2.0544   52.1386 H       1  ZINC000151820600    0.0800
     35 H35        -4.8396    3.6631   51.8587 H       1  ZINC000151820600    0.0700
     36 H36        -2.2522    4.1233   51.2832 H       1  ZINC000151820600    0.4000
     37 H37        -0.2894    2.8922   50.5080 H       1  ZINC000151820600    0.4200
     38 H38         1.4305    7.1678   49.7223 H       1  ZINC000151820600    0.0600
     39 H39         2.4104    7.3883   48.2527 H       1  ZINC000151820600    0.0700
     40 H40         0.8402    6.5553   48.1587 H       1  ZINC000151820600    0.0900
     41 H41         4.1562    4.6584   50.0852 H       1  ZINC000151820600    0.0700
     42 H42         4.3468    6.2805   49.3777 H       1  ZINC000151820600    0.0800
     43 H43         3.3669    6.0600   50.8473 H       1  ZINC000151820600    0.0700
     44 H44         1.9479    4.5879   47.0890 H       1  ZINC000151820600    0.0900
     45 H45         3.5181    5.4209   47.1830 H       1  ZINC000151820600    0.0700
     46 H46         3.3275    3.7987   47.8904 H       1  ZINC000151820600    0.0600
     47 H47        -2.5206    2.6243   46.4073 H       1  ZINC000151820600    0.1300
     48 H48        -2.1798    0.6447   44.9831 H       1  ZINC000151820600    0.1400
     49 H49        -1.0160   -1.3311   45.8789 H       1  ZINC000151820600    0.1400
     50 H50        -0.5263    0.6567   49.6227 H       1  ZINC000151820600    0.1400
@<TRIPOS>BOND
     1     1     2    1
     2     1    27    1
     3     1    28    1
     4     1    29    1
     5     2     3    2
     6     2     4    1
     7     4     5    1
     8     4    30    1
     9     4    31    1
    10     5     6    1
    11     5    32    1
    12     5    33    1
    13     6     7    1
    14     6    34    1
    15     6    35    1
    16     7     8   am
    17     7    36    1
    18     8     9    2
    19     8    10    1
    20    10    11    1
    21    10    12    1
    22    10    20    1
    23    12    13   am
    24    12    37    1
    25    13    14    2
    26    13    15    1
    27    15    16    1
    28    16    17    1
    29    16    18    1
    30    16    19    1
    31    17    38    1
    32    17    39    1
    33    17    40    1
    34    18    41    1
    35    18    42    1
    36    18    43    1
    37    19    44    1
    38    19    45    1
    39    19    46    1
    40    20    26   ar
    41    20    21   ar
    42    21    22   ar
    43    21    47    1
    44    22    23   ar
    45    22    48    1
    46    23    24   ar
    47    23    49    1
    48    24    25    1
    49    24    26   ar
    50    26    50    1
@<TRIPOS>SUBSTRUCTURE
     1 ZINC000151820600        1 TEMP              0 ****  ****    0 ROOT


##########                                Name:    ZINC000967287417
##########                DOCK_Rotatable_Bonds:                   7
##########                         Heavy_Atoms:                  25
##########                    Molecular_Weight:             347.414
##########                DOCK_Rotatable_Bonds:                   7
##########                       Formal_Charge:          -0.0200002
##########                     HBond_Acceptors:                   7
##########                        HBond_Donors:                   1
##########                         Heavy_Atoms:                  25
##########                          Grid_Score:          -28.896994
##########                     Grid_vdw_energy:          -27.979282
##########                      Grid_es_energy:           -0.917710
##########           Internal_energy_repulsive:           11.259884

@<TRIPOS>MOLECULE
ZINC000967287417
 50 52 1 0 0
SMALL
USER_CHARGES


@<TRIPOS>ATOM
      1 C1        -16.5924   -4.5519   46.0714 C.3     1  ZINC000967287417    0.0300
      2 O2        -16.1023   -3.4344   46.8152 O.3     1  ZINC000967287417   -0.3900
      3 C3        -15.2260   -2.5826   46.0746 C.3     1  ZINC000967287417    0.1400
      4 C4        -14.7761   -1.4415   46.9502 C.2     1  ZINC000967287417    0.0100
      5 C5        -14.3447   -0.2375   46.5138 C.2     1  ZINC000967287417   -0.1900
      6 C6        -14.0275    0.5241   47.6495 C.2     1  ZINC000967287417   -0.1200
      7 C7        -14.2846   -0.2636   48.7347 C.2     1  ZINC000967287417   -0.0700
      8 C8        -14.0999    0.1169   50.1389 C.2     1  ZINC000967287417    0.6100
      9 O9        -14.8107   -0.3683   50.9994 O.2     1  ZINC000967287417   -0.5200
     10 N10       -13.1431    1.0039   50.4766 N.am    1  ZINC000967287417   -0.7000
     11 C11       -12.9573    1.3827   51.8795 C.3     1  ZINC000967287417    0.1600
     12 H12       -13.9114    1.3191   52.4030 H       1  ZINC000967287417    0.1000
     13 C13       -11.9506    0.4352   52.5356 C.3     1  ZINC000967287417    0.0400
     14 N14       -10.6593    0.5353   51.8434 N.3     1  ZINC000967287417   -0.5300
     15 C15        -9.7084   -0.4598   52.3566 C.3     1  ZINC000967287417    0.1300
     16 C16        -9.7372   -0.4517   53.8633 C.2     1  ZINC000967287417    0.0200
     17 N17       -10.4027   -1.2618   54.6350 N.2     1  ZINC000967287417   -0.3500
     18 O18       -10.2269   -1.0082   55.8041 O.3     1  ZINC000967287417    0.1000
     19 C19        -9.3979    0.0330   55.9631 C.2     1  ZINC000967287417   -0.0300
     20 C20        -8.9458    0.6352   57.2686 C.3     1  ZINC000967287417   -0.0800
     21 C21        -9.0419    0.4332   54.7190 C.2     1  ZINC000967287417   -0.2400
     22 C22       -10.1068    1.8921   51.9438 C.3     1  ZINC000967287417    0.0500
     23 C23       -11.0586    2.8831   51.2702 C.3     1  ZINC000967287417   -0.1100
     24 C24       -12.4269    2.8170   51.9559 C.3     1  ZINC000967287417   -0.1000
     25 H25       -12.3257    3.1128   53.0001 H       1  ZINC000967287417    0.0900
     26 C26       -13.3996    3.7628   51.2485 C.3     1  ZINC000967287417   -0.1500
     27 O27       -14.7436   -1.4515   48.2891 O.3     1  ZINC000967287417   -0.1600
     28 H28       -15.7534   -5.1637   45.7398 H       1  ZINC000967287417    0.0500
     29 H29       -17.2499   -5.1488   46.7034 H       1  ZINC000967287417    0.0900
     30 H30       -17.1476   -4.1955   45.2038 H       1  ZINC000967287417    0.0500
     31 H31       -14.3571   -3.1526   45.7459 H       1  ZINC000967287417    0.0900
     32 H32       -15.7519   -2.1880   45.2052 H       1  ZINC000967287417    0.0700
     33 H33       -14.2599    0.0792   45.4849 H       1  ZINC000967287417    0.1600
     34 H34       -13.6526    1.5369   47.6623 H       1  ZINC000967287417    0.1600
     35 H35       -12.5773    1.3916   49.7906 H       1  ZINC000967287417    0.4100
     36 H36       -11.8233    0.7089   53.5830 H       1  ZINC000967287417    0.0500
     37 H37       -12.3192   -0.5886   52.4702 H       1  ZINC000967287417    0.0900
     38 H38        -9.9862   -1.4492   51.9932 H       1  ZINC000967287417    0.0600
     39 H39        -8.7041   -0.2147   52.0112 H       1  ZINC000967287417    0.0900
     40 H40        -9.4002    0.0910   58.0964 H       1  ZINC000967287417    0.0800
     41 H41        -7.8604    0.5692   57.3425 H       1  ZINC000967287417    0.0900
     42 H42        -9.2500    1.6811   57.3107 H       1  ZINC000967287417    0.0900
     43 H43        -8.3845    1.2448   54.4441 H       1  ZINC000967287417    0.1700
     44 H44        -9.9882    2.1590   52.9940 H       1  ZINC000967287417    0.0400
     45 H45        -9.1363    1.9266   51.4487 H       1  ZINC000967287417    0.0800
     46 H46       -10.6558    3.8921   51.3586 H       1  ZINC000967287417    0.0700
     47 H47       -11.1668    2.6250   50.2167 H       1  ZINC000967287417    0.0700
     48 H48       -13.5019    3.4648   50.2051 H       1  ZINC000967287417    0.0600
     49 H49       -14.3728    3.7151   51.7371 H       1  ZINC000967287417    0.0600
     50 H50       -13.0170    4.7821   51.2995 H       1  ZINC000967287417    0.0600
@<TRIPOS>BOND
     1     1     2    1
     2     1    28    1
     3     1    29    1
     4     1    30    1
     5     2     3    1
     6     3     4    1
     7     3    31    1
     8     3    32    1
     9     4    27    1
    10     4     5    2
    11     5     6    1
    12     5    33    1
    13     6     7    2
    14     6    34    1
    15     7     8    1
    16     7    27    1
    17     8     9    2
    18     8    10   am
    19    10    11    1
    20    10    35    1
    21    11    12    1
    22    11    24    1
    23    11    13    1
    24    13    14    1
    25    13    36    1
    26    13    37    1
    27    14    15    1
    28    14    22    1
    29    15    16    1
    30    15    38    1
    31    15    39    1
    32    16    21    1
    33    16    17    2
    34    17    18    1
    35    18    19    1
    36    19    20    1
    37    19    21    2
    38    20    40    1
    39    20    41    1
    40    20    42    1
    41    21    43    1
    42    22    23    1
    43    22    44    1
    44    22    45    1
    45    23    24    1
    46    23    46    1
    47    23    47    1
    48    24    25    1
    49    24    26    1
    50    26    48    1
    51    26    49    1
    52    26    50    1
@<TRIPOS>SUBSTRUCTURE
     1 ZINC000967287417        1 TEMP              0 ****  ****    0 ROOT


##########                                Name:    ZINC001018437438
##########                DOCK_Rotatable_Bonds:                   8
##########                         Heavy_Atoms:                  24
##########                    Molecular_Weight:              333.39
##########                DOCK_Rotatable_Bonds:                   8
##########                       Formal_Charge:        -4.17233e-07
##########                     HBond_Acceptors:                   8
##########                        HBond_Donors:                   4
##########                         Heavy_Atoms:                  24
##########                          Grid_Score:          -28.869484
##########                     Grid_vdw_energy:          -26.982813
##########                      Grid_es_energy:           -1.886671
##########           Internal_energy_repulsive:           87.982376

@<TRIPOS>MOLECULE
ZINC001018437438
 47 49 1 0 0
SMALL
USER_CHARGES


@<TRIPOS>ATOM
      1 C1         -0.4555    0.6273   44.8959 C.3     1  ZINC001018437438   -0.1400
      2 C2         -1.3672    1.0314   46.0561 C.3     1  ZINC001018437438    0.1400
      3 H3         -2.4065    0.8423   45.7872 H       1  ZINC001018437438    0.0700
      4 C4         -1.0033    0.2185   47.3025 C.3     1  ZINC001018437438   -0.1300
      5 C5         -1.8219    0.7233   48.4930 C.3     1  ZINC001018437438   -0.1300
      6 C6         -1.4854    2.1923   48.7592 C.3     1  ZINC001018437438    0.1300
      7 H7         -0.4184    2.2908   48.9587 H       1  ZINC001018437438    0.1000
      8 N8         -2.2454    2.6656   49.9188 N.am    1  ZINC001018437438   -0.7200
      9 C9         -1.8740    3.7957   50.5523 C.2     1  ZINC001018437438    0.6000
     10 O10        -0.9088    4.4235   50.1605 O.2     1  ZINC001018437438   -0.5100
     11 C11        -2.6364    4.2701   51.7183 C.2     1  ZINC001018437438   -0.0400
     12 C12        -3.5078    3.5299   52.4982 C.2     1  ZINC001018437438   -0.1400
     13 C13        -3.9768    4.4155   53.4712 C.2     1  ZINC001018437438    0.0600
     14 C14        -4.9571    4.0901   54.5685 C.3     1  ZINC001018437438   -0.0800
     15 C15        -6.0782    3.1008   54.2437 C.3     1  ZINC001018437438   -0.1700
     16 C16        -4.9218    2.6756   55.1508 C.3     1  ZINC001018437438   -0.1600
     17 N17        -3.4132    5.5777   53.2613 N.2     1  ZINC001018437438   -0.2600
     18 N18        -2.6213    5.5278   52.2511 N.pl3   1  ZINC001018437438   -0.3800
     19 C19        -1.8548    3.0276   47.5294 C.3     1  ZINC001018437438    0.1000
     20 N20        -1.1867    2.4595   46.3502 N.am    1  ZINC001018437438   -0.6100
     21 C21        -0.4190    3.2327   45.5569 C.2     1  ZINC001018437438    0.5200
     22 O22         0.1310    2.7508   44.5892 O.2     1  ZINC001018437438   -0.4800
     23 C23        -0.2439    4.6959   45.8723 C.3     1  ZINC001018437438   -0.1700
     24 C24         0.5407    5.3573   44.7685 C.2     1  ZINC001018437438    0.5200
     25 N25        -0.1051    5.9794   43.7623 N.am    1  ZINC001018437438   -0.8600
     26 O26         1.7530    5.3297   44.7858 O.2     1  ZINC001018437438   -0.5000
     27 H27         0.5720    0.9092   45.1259 H       1  ZINC001018437438    0.0700
     28 H28        -0.5119   -0.4511   44.7481 H       1  ZINC001018437438    0.0500
     29 H29        -0.7770    1.1358   43.9870 H       1  ZINC001018437438    0.0800
     30 H30        -1.2260   -0.8342   47.1280 H       1  ZINC001018437438    0.0900
     31 H31         0.0592    0.3355   47.5157 H       1  ZINC001018437438    0.0700
     32 H32        -2.8845    0.6288   48.2692 H       1  ZINC001018437438    0.0700
     33 H33        -1.5829    0.1302   49.3757 H       1  ZINC001018437438    0.0800
     34 H34        -3.0159    2.1656   50.2307 H       1  ZINC001018437438    0.4000
     35 H35        -3.7695    2.4888   52.3798 H       1  ZINC001018437438    0.1700
     36 H36        -5.1896    4.9090   55.2494 H       1  ZINC001018437438    0.1200
     37 H37        -7.0486    3.2688   54.7109 H       1  ZINC001018437438    0.1000
     38 H38        -6.1067    2.6854   53.2364 H       1  ZINC001018437438    0.1000
     39 H39        -4.1894    1.9805   54.7403 H       1  ZINC001018437438    0.1000
     40 H40        -5.1313    2.5640   56.2146 H       1  ZINC001018437438    0.1000
     41 H41        -2.0979    6.2715   51.9139 H       1  ZINC001018437438    0.4400
     42 H42        -2.9346    3.0033   47.3821 H       1  ZINC001018437438    0.0700
     43 H43        -1.5270    4.0569   47.6748 H       1  ZINC001018437438    0.0900
     44 H44        -1.2223    5.1690   45.9563 H       1  ZINC001018437438    0.1200
     45 H45         0.2935    4.8028   46.8145 H       1  ZINC001018437438    0.1200
     46 H46         0.3996    6.4042   43.0513 H       1  ZINC001018437438    0.4000
     47 H47        -1.0747    6.0024   43.7493 H       1  ZINC001018437438    0.4000
@<TRIPOS>BOND
     1     1     2    1
     2     1    27    1
     3     1    28    1
     4     1    29    1
     5     2     3    1
     6     2    20    1
     7     2     4    1
     8     4     5    1
     9     4    30    1
    10     4    31    1
    11     5     6    1
    12     5    32    1
    13     5    33    1
    14     6     7    1
    15     6     8    1
    16     6    19    1
    17     8     9   am
    18     8    34    1
    19     9    10    2
    20     9    11    1
    21    11    18    1
    22    11    12    2
    23    12    13    1
    24    12    35    1
    25    13    14    1
    26    13    17    2
    27    14    16    1
    28    14    15    1
    29    14    36    1
    30    15    16    1
    31    15    37    1
    32    15    38    1
    33    16    39    1
    34    16    40    1
    35    17    18    1
    36    18    41    1
    37    19    20    1
    38    19    42    1
    39    19    43    1
    40    20    21   am
    41    21    22    2
    42    21    23    1
    43    23    24    1
    44    23    44    1
    45    23    45    1
    46    24    25   am
    47    24    26    2
    48    25    46    1
    49    25    47    1
@<TRIPOS>SUBSTRUCTURE
     1 ZINC001018437438        1 TEMP              0 ****  ****    0 ROOT


##########                                Name:    ZINC001272744746
##########                DOCK_Rotatable_Bonds:                   6
##########                         Heavy_Atoms:                  25
##########                    Molecular_Weight:             348.417
##########                DOCK_Rotatable_Bonds:                   6
##########                       Formal_Charge:           0.0299999
##########                     HBond_Acceptors:                   6
##########                        HBond_Donors:                   1
##########                         Heavy_Atoms:                  25
##########                          Grid_Score:          -28.861364
##########                     Grid_vdw_energy:          -28.925871
##########                      Grid_es_energy:            0.064506
##########           Internal_energy_repulsive:           78.711594

@<TRIPOS>MOLECULE
ZINC001272744746
 50 52 1 0 0
SMALL
USER_CHARGES


@<TRIPOS>ATOM
      1 C1          4.5621    1.2718   48.0009 C.2     1  ZINC001272744746   -0.1700
      2 C2          3.3448    1.0605   48.4364 C.2     1  ZINC001272744746   -0.1700
      3 C3          2.6499   -0.2410   48.1295 C.3     1  ZINC001272744746    0.1500
      4 N4          1.2008   -0.0268   48.1040 N.am    1  ZINC001272744746   -0.6100
      5 C5          0.5588    1.2676   47.8380 C.3     1  ZINC001272744746    0.0700
      6 C6         -0.9044    0.9343   47.4998 C.3     1  ZINC001272744746    0.1100
      7 C7         -1.1098   -0.4167   48.2090 C.3     1  ZINC001272744746   -0.1500
      8 C8          0.2873   -0.9909   48.3155 C.2     1  ZINC001272744746    0.5200
      9 O9          0.5451   -2.1499   48.5631 O.2     1  ZINC001272744746   -0.5200
     10 C10        -1.0850    0.7814   45.9959 C.3     1  ZINC001272744746   -0.1000
     11 C11        -0.8539    2.1355   45.3163 C.3     1  ZINC001272744746   -0.1200
     12 C12        -1.8082    3.1685   45.9222 C.3     1  ZINC001272744746   -0.1200
     13 C13        -1.5674    3.2600   47.4307 C.3     1  ZINC001272744746    0.0500
     14 N14        -1.8045    1.9460   48.0452 N.3     1  ZINC001272744746   -0.5100
     15 C15        -1.6886    2.0202   49.5078 C.3     1  ZINC001272744746    0.0800
     16 C16        -1.6744    3.4644   49.9379 C.ar    1  ZINC001272744746   -0.0200
     17 C17        -0.4740    4.1424   50.0374 C.ar    1  ZINC001272744746   -0.1700
     18 C18        -0.4562    5.4693   50.4322 C.ar    1  ZINC001272744746    0.1200
     19 F19         0.7183    6.1301   50.5288 F       1  ZINC001272744746   -0.1200
     20 C20        -1.6449    6.1201   50.7280 C.ar    1  ZINC001272744746    0.0400
     21 O21        -1.6302    7.4241   51.1157 O.3     1  ZINC001272744746   -0.4700
     22 C22        -2.8521    5.4365   50.6269 C.ar    1  ZINC001272744746    0.1300
     23 O23        -4.0202    6.0703   50.9154 O.3     1  ZINC001272744746   -0.3000
     24 C24        -3.9335    7.4389   51.3175 C.3     1  ZINC001272744746    0.0200
     25 C25        -2.8627    4.1098   50.2265 C.ar    1  ZINC001272744746   -0.1800
     26 H26         5.0678    0.5131   47.4220 H       1  ZINC001272744746    0.1000
     27 H27         5.0584    2.2063   48.2171 H       1  ZINC001272744746    0.1000
     28 H28         2.8391    1.8192   49.0153 H       1  ZINC001272744746    0.1100
     29 H29         2.9800   -0.6090   47.1581 H       1  ZINC001272744746    0.0900
     30 H30         2.8953   -0.9740   48.8982 H       1  ZINC001272744746    0.0800
     31 H31         0.6069    1.9020   48.7230 H       1  ZINC001272744746    0.0700
     32 H32         1.0388    1.7606   46.9926 H       1  ZINC001272744746    0.0900
     33 H33        -1.5418   -0.2669   49.1985 H       1  ZINC001272744746    0.1100
     34 H34        -1.7437   -1.0703   47.6095 H       1  ZINC001272744746    0.1100
     35 H35        -0.3660    0.0561   45.6153 H       1  ZINC001272744746    0.0700
     36 H36        -2.0970    0.4364   45.7844 H       1  ZINC001272744746    0.0800
     37 H37         0.1766    2.4528   45.4769 H       1  ZINC001272744746    0.0600
     38 H38        -1.0462    2.0444   44.2473 H       1  ZINC001272744746    0.0700
     39 H39        -1.6280    4.1417   45.4657 H       1  ZINC001272744746    0.0700
     40 H40        -2.8383    2.8646   45.7364 H       1  ZINC001272744746    0.0700
     41 H41        -0.5383    3.5675   47.6163 H       1  ZINC001272744746    0.0400
     42 H42        -2.2490    3.9919   47.8638 H       1  ZINC001272744746    0.0900
     43 H43        -2.5379    1.5130   49.9657 H       1  ZINC001272744746    0.1000
     44 H44        -0.7637    1.5378   49.8240 H       1  ZINC001272744746    0.0600
     45 H45         0.4517    3.6360   49.8072 H       1  ZINC001272744746    0.1400
     46 H46        -0.7462    7.8146   51.1492 H       1  ZINC001272744746    0.3900
     47 H47        -3.4723    8.0230   50.5212 H       1  ZINC001272744746    0.0600
     48 H48        -4.9339    7.8229   51.5172 H       1  ZINC001272744746    0.1100
     49 H49        -3.3284    7.5146   52.2209 H       1  ZINC001272744746    0.0600
     50 H50        -3.7990    3.5774   50.1474 H       1  ZINC001272744746    0.1400
@<TRIPOS>BOND
     1     1     2    2
     2     1    26    1
     3     1    27    1
     4     2     3    1
     5     2    28    1
     6     3     4    1
     7     3    29    1
     8     3    30    1
     9     4     8   am
    10     4     5    1
    11     5     6    1
    12     5    31    1
    13     5    32    1
    14     6    14    1
    15     6     7    1
    16     6    10    1
    17     7     8    1
    18     7    33    1
    19     7    34    1
    20     8     9    2
    21    10    11    1
    22    10    35    1
    23    10    36    1
    24    11    12    1
    25    11    37    1
    26    11    38    1
    27    12    13    1
    28    12    39    1
    29    12    40    1
    30    13    14    1
    31    13    41    1
    32    13    42    1
    33    14    15    1
    34    15    16    1
    35    15    43    1
    36    15    44    1
    37    16    25   ar
    38    16    17   ar
    39    17    18   ar
    40    17    45    1
    41    18    19    1
    42    18    20   ar
    43    20    21    1
    44    20    22   ar
    45    21    46    1
    46    22    23    1
    47    22    25   ar
    48    23    24    1
    49    24    47    1
    50    24    48    1
    51    24    49    1
    52    25    50    1
@<TRIPOS>SUBSTRUCTURE
     1 ZINC001272744746        1 TEMP              0 ****  ****    0 ROOT


##########                                Name:    ZINC000066361645
##########                DOCK_Rotatable_Bonds:                   8
##########                         Heavy_Atoms:                  27
##########                    Molecular_Weight:             392.519
##########                DOCK_Rotatable_Bonds:                   8
##########                       Formal_Charge:           0.0100004
##########                     HBond_Acceptors:                   7
##########                        HBond_Donors:                   2
##########                         Heavy_Atoms:                  27
##########                          Grid_Score:          -28.851784
##########                     Grid_vdw_energy:          -27.942320
##########                      Grid_es_energy:           -0.909465
##########           Internal_energy_repulsive:            8.465041

@<TRIPOS>MOLECULE
ZINC000066361645
 55 57 1 0 0
SMALL
USER_CHARGES


@<TRIPOS>ATOM
      1 C1        -10.0375    1.3739   58.4602 C.3     1  ZINC000066361645   -0.1400
      2 S2         -9.1345   -0.1786   58.2067 S.3     1  ZINC000066361645   -0.1100
      3 C3        -10.3731   -1.2584   57.5708 C.ar    1  ZINC000066361645   -0.1200
      4 C4        -11.2394   -1.9083   58.4370 C.ar    1  ZINC000066361645   -0.1100
      5 C5        -12.2156   -2.7580   57.9373 C.ar    1  ZINC000066361645    0.0500
      6 C6        -12.3272   -2.9576   56.5668 C.ar    1  ZINC000066361645    0.0700
      7 C7        -11.4606   -2.3098   55.6986 C.ar    1  ZINC000066361645   -0.1100
      8 C8        -10.4877   -1.4565   56.1952 C.ar    1  ZINC000066361645    0.1800
      9 N9         -9.6122   -0.8018   55.3157 N.am    1  ZINC000066361645   -0.6600
     10 C10       -10.0135    0.3105   54.6690 C.2     1  ZINC000066361645    0.5100
     11 O11       -11.1318    0.7456   54.8473 O.2     1  ZINC000066361645   -0.5000
     12 C12        -9.0732    1.0136   53.7245 C.3     1  ZINC000066361645   -0.1500
     13 C13        -9.1341    2.5221   53.9731 C.3     1  ZINC000066361645    0.1600
     14 H14        -9.5834    2.7118   54.9478 H       1  ZINC000066361645    0.1000
     15 C15        -9.9800    3.1848   52.8839 C.3     1  ZINC000066361645   -0.1600
     16 N16        -7.7786    3.0769   53.9438 N.am    1  ZINC000066361645   -0.7200
     17 C17        -7.0492    3.1344   55.0757 C.2     1  ZINC000066361645    0.5300
     18 O18        -7.5148    2.7256   56.1184 O.2     1  ZINC000066361645   -0.5400
     19 C19        -5.6555    3.7067   55.0459 C.3     1  ZINC000066361645   -0.1100
     20 C20        -4.7866    2.9879   56.0798 C.3     1  ZINC000066361645   -0.1100
     21 C21        -3.3716    3.5690   56.0494 C.3     1  ZINC000066361645   -0.1200
     22 C22        -2.7708    3.3759   54.6556 C.3     1  ZINC000066361645   -0.1200
     23 C23        -3.6397    4.0948   53.6216 C.3     1  ZINC000066361645   -0.1200
     24 C24        -5.0547    3.5136   53.6520 C.3     1  ZINC000066361645   -0.1000
     25 O25       -13.2852   -3.7827   56.0588 O.3     1  ZINC000066361645   -0.3000
     26 C26       -13.8933   -4.7021   56.9721 C.3     1  ZINC000066361645    0.0200
     27 C27       -14.2570   -3.9378   58.2523 C.3     1  ZINC000066361645    0.0200
     28 O28       -13.0546   -3.3904   58.8040 O.3     1  ZINC000066361645   -0.3100
     29 H29       -10.4443    1.7172   57.5089 H       1  ZINC000066361645    0.0900
     30 H30       -10.8522    1.2095   59.1655 H       1  ZINC000066361645    0.0900
     31 H31        -9.3589    2.1282   58.8585 H       1  ZINC000066361645    0.1100
     32 H32       -11.1538   -1.7527   59.5024 H       1  ZINC000066361645    0.1400
     33 H33       -11.5464   -2.4677   54.6337 H       1  ZINC000066361645    0.1600
     34 H34        -8.7180   -1.1497   55.1732 H       1  ZINC000066361645    0.4100
     35 H35        -8.0565    0.6585   53.8925 H       1  ZINC000066361645    0.1000
     36 H36        -9.3663    0.8029   52.6960 H       1  ZINC000066361645    0.1200
     37 H37        -9.5307    2.9950   51.9091 H       1  ZINC000066361645    0.0600
     38 H38       -10.9885    2.7719   52.9057 H       1  ZINC000066361645    0.0700
     39 H39       -10.0233    4.2594   53.0610 H       1  ZINC000066361645    0.0700
     40 H40        -7.4058    3.4028   53.1096 H       1  ZINC000066361645    0.4000
     41 H41        -5.6944    4.7705   55.2805 H       1  ZINC000066361645    0.1000
     42 H42        -5.2146    3.1254   57.0728 H       1  ZINC000066361645    0.0600
     43 H43        -4.7476    1.9241   55.8451 H       1  ZINC000066361645    0.0700
     44 H44        -3.4106    4.6327   56.2841 H       1  ZINC000066361645    0.0600
     45 H45        -2.7525    3.0569   56.7860 H       1  ZINC000066361645    0.0700
     46 H46        -1.7627    3.7900   54.6340 H       1  ZINC000066361645    0.0600
     47 H47        -2.7318    2.3122   54.4209 H       1  ZINC000066361645    0.0600
     48 H48        -3.6786    5.1586   53.8564 H       1  ZINC000066361645    0.0600
     49 H49        -3.2117    3.9573   52.6286 H       1  ZINC000066361645    0.0700
     50 H50        -5.0157    2.4499   53.4174 H       1  ZINC000066361645    0.0700
     51 H51        -5.6737    4.0258   52.9154 H       1  ZINC000066361645    0.0700
     52 H52       -14.7949   -5.1216   56.5258 H       1  ZINC000066361645    0.1300
     53 H53       -13.1927   -5.5030   57.2086 H       1  ZINC000066361645    0.0800
     54 H54       -14.9523   -3.1328   58.0148 H       1  ZINC000066361645    0.0800
     55 H55       -14.7138   -4.6192   58.9701 H       1  ZINC000066361645    0.1200
@<TRIPOS>BOND
     1     1     2    1
     2     1    29    1
     3     1    30    1
     4     1    31    1
     5     2     3    1
     6     3     8   ar
     7     3     4   ar
     8     4     5   ar
     9     4    32    1
    10     5    28    1
    11     5     6   ar
    12     6     7   ar
    13     6    25    1
    14     7     8   ar
    15     7    33    1
    16     8     9    1
    17     9    10   am
    18     9    34    1
    19    10    11    2
    20    10    12    1
    21    12    13    1
    22    12    35    1
    23    12    36    1
    24    13    14    1
    25    13    15    1
    26    13    16    1
    27    15    37    1
    28    15    38    1
    29    15    39    1
    30    16    17   am
    31    16    40    1
    32    17    18    2
    33    17    19    1
    34    19    24    1
    35    19    20    1
    36    19    41    1
    37    20    21    1
    38    20    42    1
    39    20    43    1
    40    21    22    1
    41    21    44    1
    42    21    45    1
    43    22    23    1
    44    22    46    1
    45    22    47    1
    46    23    24    1
    47    23    48    1
    48    23    49    1
    49    24    50    1
    50    24    51    1
    51    25    26    1
    52    26    27    1
    53    26    52    1
    54    26    53    1
    55    27    28    1
    56    27    54    1
    57    27    55    1
@<TRIPOS>SUBSTRUCTURE
     1 ZINC000066361645        1 TEMP              0 ****  ****    0 ROOT


##########                                Name:    ZINC000828026236
##########                DOCK_Rotatable_Bonds:                   1
##########                         Heavy_Atoms:                  19
##########                    Molecular_Weight:             383.045
##########                DOCK_Rotatable_Bonds:                   1
##########                       Formal_Charge:                   0
##########                     HBond_Acceptors:                   5
##########                        HBond_Donors:                   0
##########                         Heavy_Atoms:                  19
##########                          Grid_Score:          -28.844950
##########                     Grid_vdw_energy:          -27.922825
##########                      Grid_es_energy:           -0.922126
##########           Internal_energy_repulsive:            2.331692

@<TRIPOS>MOLECULE
ZINC000828026236
 28 30 1 0 0
SMALL
USER_CHARGES


@<TRIPOS>ATOM
      1 N1         -0.1374   -1.5999   47.7612 N.1     1  ZINC000828026236   -0.3800
      2 C2         -0.4366   -0.5044   47.7900 C.1     1  ZINC000828026236    0.2600
      3 C3         -0.8137    0.8766   47.8262 C.ar    1  ZINC000828026236   -0.0500
      4 C4         -1.4639    1.4084   48.9453 C.ar    1  ZINC000828026236    0.0100
      5 C5         -1.8075    2.7499   48.9306 C.ar    1  ZINC000828026236   -0.1600
      6 Br6        -2.6871    3.5245   50.4146 Br      1  ZINC000828026236   -0.0100
      7 C7         -1.5018    3.5192   47.8219 C.ar    1  ZINC000828026236    0.1800
      8 N8         -0.8881    2.9983   46.7766 N.ar    1  ZINC000828026236   -0.5000
      9 C9         -0.5323    1.7241   46.7405 C.ar    1  ZINC000828026236    0.3600
     10 N10         0.1099    1.2202   45.6224 N.3     1  ZINC000828026236   -0.4900
     11 C11         1.0476    2.2052   45.0649 C.3     1  ZINC000828026236    0.0500
     12 C12         1.9991    1.5128   44.0809 C.3     1  ZINC000828026236    0.1100
     13 N13         1.1958    0.7154   43.1504 N.pl3   1  ZINC000828026236   -0.4400
     14 C14         1.5595    0.1860   41.9512 C.2     1  ZINC000828026236   -0.0300
     15 Br15        3.2522    0.3280   41.1203 Br      1  ZINC000828026236    0.0200
     16 C16         0.4763   -0.4608   41.4698 C.2     1  ZINC000828026236    0.0300
     17 N17        -0.5208   -0.3250   42.3605 N.2     1  ZINC000828026236   -0.4700
     18 C18        -0.0998    0.3757   43.3697 C.2     1  ZINC000828026236    0.2300
     19 C19        -0.8635    0.7787   44.6086 C.3     1  ZINC000828026236    0.1500
     20 H20        -1.6925    0.7880   49.7993 H       1  ZINC000828026236    0.1600
     21 H21        -1.7706    4.5651   47.8119 H       1  ZINC000828026236    0.1800
     22 H22         0.4894    2.9828   44.5435 H       1  ZINC000828026236    0.0700
     23 H23         1.6252    2.6540   45.8730 H       1  ZINC000828026236    0.1100
     24 H24         2.5658    2.2622   43.5283 H       1  ZINC000828026236    0.1100
     25 H25         2.6831    0.8626   44.6264 H       1  ZINC000828026236    0.1000
     26 H26         0.4207   -0.9941   40.5323 H       1  ZINC000828026236    0.1800
     27 H27        -1.4277   -0.0739   44.9868 H       1  ZINC000828026236    0.1200
     28 H28        -1.5447    1.5958   44.3717 H       1  ZINC000828026236    0.1000
@<TRIPOS>BOND
     1     1     2    3
     2     2     3    1
     3     3     9   ar
     4     3     4   ar
     5     4     5   ar
     6     4    20    1
     7     5     6    1
     8     5     7   ar
     9     7     8   ar
    10     7    21    1
    11     8     9   ar
    12     9    10    1
    13    10    19    1
    14    10    11    1
    15    11    12    1
    16    11    22    1
    17    11    23    1
    18    12    13    1
    19    12    24    1
    20    12    25    1
    21    13    18    1
    22    13    14    1
    23    14    15    1
    24    14    16    2
    25    16    17    1
    26    16    26    1
    27    17    18    2
    28    18    19    1
    29    19    27    1
    30    19    28    1
@<TRIPOS>SUBSTRUCTURE
     1 ZINC000828026236        1 TEMP              0 ****  ****    0 ROOT


##########                                Name:    ZINC000542980334
##########                DOCK_Rotatable_Bonds:                   6
##########                         Heavy_Atoms:                  27
##########                    Molecular_Weight:             404.795
##########                DOCK_Rotatable_Bonds:                   6
##########                       Formal_Charge:           0.0300001
##########                     HBond_Acceptors:                  10
##########                        HBond_Donors:                   1
##########                         Heavy_Atoms:                  27
##########                          Grid_Score:          -28.813156
##########                     Grid_vdw_energy:          -26.447201
##########                      Grid_es_energy:           -2.365956
##########           Internal_energy_repulsive:           12.110297

@<TRIPOS>MOLECULE
ZINC000542980334
 44 46 1 0 0
SMALL
USER_CHARGES


@<TRIPOS>ATOM
      1 O1          2.0358    3.5407   51.2638 O.2     1  ZINC000542980334   -0.5800
      2 C2          0.8650    3.3373   51.5210 C.2     1  ZINC000542980334    0.7100
      3 N3          0.0951    2.6475   50.6563 N.am    1  ZINC000542980334   -0.7400
      4 C4          0.6673    2.1477   49.4037 C.3     1  ZINC000542980334    0.1800
      5 C5         -0.1897    2.5929   48.2469 C.ar    1  ZINC000542980334   -0.1400
      6 C6          0.0650    3.8010   47.6211 C.ar    1  ZINC000542980334    0.1300
      7 F7          1.0820    4.5817   48.0471 F       1  ZINC000542980334   -0.1200
      8 C8         -0.7230    4.2088   46.5578 C.ar    1  ZINC000542980334   -0.1500
      9 C9         -1.7629    3.4098   46.1221 C.ar    1  ZINC000542980334   -0.0700
     10 C10        -2.0172    2.2033   46.7470 C.ar    1  ZINC000542980334   -0.1200
     11 C11        -1.2278    1.7918   47.8061 C.ar    1  ZINC000542980334    0.0100
     12 Cl12       -1.5477    0.2763   48.5898 Cl      1  ZINC000542980334   -0.0400
     13 N13         0.3385    3.7971   52.6733 N.am    1  ZINC000542980334   -0.6300
     14 C14         1.1652    4.5508   53.6258 C.3     1  ZINC000542980334    0.1100
     15 C15         1.0597    3.8875   55.0026 C.3     1  ZINC000542980334   -0.1300
     16 C16        -0.4141    3.7771   55.3997 C.3     1  ZINC000542980334   -0.1300
     17 C17        -1.1536    2.9027   54.3844 C.3     1  ZINC000542980334    0.1400
     18 H18        -0.6915    1.9161   54.3490 H       1  ZINC000542980334    0.1100
     19 N19        -2.5572    2.7712   54.7829 N.pl3   1  ZINC000542980334   -0.3400
     20 C20        -3.0112    2.1749   55.9052 C.2     1  ZINC000542980334    0.0600
     21 C21        -4.3615    2.2638   55.9021 C.2     1  ZINC000542980334   -0.2300
     22 C22        -4.7457    2.9376   54.7382 C.2     1  ZINC000542980334   -0.0200
     23 C23        -6.1602    3.2575   54.3285 C.3     1  ZINC000542980334    0.5600
     24 F24        -6.9515    3.4184   55.4710 F       1  ZINC000542980334   -0.1700
     25 F25        -6.1733    4.4406   53.5818 F       1  ZINC000542980334   -0.1700
     26 F26        -6.6691    2.2107   53.5524 F       1  ZINC000542980334   -0.1600
     27 N27        -3.6646    3.2475   54.0696 N.2     1  ZINC000542980334   -0.2300
     28 C28        -1.0746    3.5597   52.9980 C.3     1  ZINC000542980334    0.1300
     29 H29        -0.8381    2.4819   50.8633 H       1  ZINC000542980334    0.4000
     30 H30         1.6758    2.5428   49.2819 H       1  ZINC000542980334    0.0900
     31 H31         0.7045    1.0586   49.4303 H       1  ZINC000542980334    0.0900
     32 H32        -0.5251    5.1514   46.0693 H       1  ZINC000542980334    0.1500
     33 H33        -2.3773    3.7283   45.2930 H       1  ZINC000542980334    0.1500
     34 H34        -2.8304    1.5797   46.4060 H       1  ZINC000542980334    0.1500
     35 H35         2.2037    4.5424   53.2947 H       1  ZINC000542980334    0.0800
     36 H36         0.8074    5.5786   53.6870 H       1  ZINC000542980334    0.0800
     37 H37         1.5010    2.8916   54.9615 H       1  ZINC000542980334    0.0800
     38 H38         1.5907    4.4910   55.7388 H       1  ZINC000542980334    0.0900
     39 H39        -0.4908    3.3278   56.3899 H       1  ZINC000542980334    0.0800
     40 H40        -0.8611    4.7711   55.4165 H       1  ZINC000542980334    0.0800
     41 H41        -2.4055    1.7096   56.6688 H       1  ZINC000542980334    0.1900
     42 H42        -5.0252    1.8816   56.6635 H       1  ZINC000542980334    0.1600
     43 H43        -1.6162    4.5056   53.0104 H       1  ZINC000542980334    0.0800
     44 H44        -1.5127    2.8952   52.2532 H       1  ZINC000542980334    0.1100
@<TRIPOS>BOND
     1     1     2    2
     2     2     3   am
     3     2    13   am
     4     3     4    1
     5     3    29    1
     6     4     5    1
     7     4    30    1
     8     4    31    1
     9     5    11   ar
    10     5     6   ar
    11     6     7    1
    12     6     8   ar
    13     8     9   ar
    14     8    32    1
    15     9    10   ar
    16     9    33    1
    17    10    11   ar
    18    10    34    1
    19    11    12    1
    20    13    28    1
    21    13    14    1
    22    14    15    1
    23    14    35    1
    24    14    36    1
    25    15    16    1
    26    15    37    1
    27    15    38    1
    28    16    17    1
    29    16    39    1
    30    16    40    1
    31    17    18    1
    32    17    19    1
    33    17    28    1
    34    19    27    1
    35    19    20    1
    36    20    21    2
    37    20    41    1
    38    21    22    1
    39    21    42    1
    40    22    23    1
    41    22    27    2
    42    23    24    1
    43    23    25    1
    44    23    26    1
    45    28    43    1
    46    28    44    1
@<TRIPOS>SUBSTRUCTURE
     1 ZINC000542980334        1 TEMP              0 ****  ****    0 ROOT


##########                                Name:    ZINC001085817863
##########                DOCK_Rotatable_Bonds:                   7
##########                         Heavy_Atoms:                  24
##########                    Molecular_Weight:             326.442
##########                DOCK_Rotatable_Bonds:                   7
##########                       Formal_Charge:           0.0299998
##########                     HBond_Acceptors:                   5
##########                        HBond_Donors:                   0
##########                         Heavy_Atoms:                  24
##########                          Grid_Score:          -28.791260
##########                     Grid_vdw_energy:          -28.715252
##########                      Grid_es_energy:           -0.076009
##########           Internal_energy_repulsive:           13.478500

@<TRIPOS>MOLECULE
ZINC001085817863
 50 52 1 0 0
SMALL
USER_CHARGES


@<TRIPOS>ATOM
      1 C1         -0.0681   -0.7608   48.0666 C.3     1  ZINC001085817863   -0.1400
      2 C2         -1.5083   -0.4219   47.6770 C.3     1  ZINC001085817863   -0.0700
      3 C3         -1.5382    0.9101   46.9727 C.2     1  ZINC001085817863    0.1100
      4 C4         -1.7990    2.1186   47.5575 C.2     1  ZINC001085817863   -0.2400
      5 C5         -2.1004    2.3683   48.9771 C.2     1  ZINC001085817863    0.6000
      6 O6         -3.1367    1.9543   49.4608 O.2     1  ZINC001085817863   -0.5300
      7 N7         -1.2277    3.0555   49.7406 N.am    1  ZINC001085817863   -0.6100
      8 C8          0.0205    3.5541   49.1581 C.3     1  ZINC001085817863    0.0800
      9 C9         -1.5275    3.3039   51.1529 C.3     1  ZINC001085817863    0.1300
     10 C10        -1.3917    4.7990   51.4478 C.3     1  ZINC001085817863    0.0100
     11 H11        -0.3691    5.0899   51.6884 H       1  ZINC001085817863    0.0800
     12 C12        -2.0487    5.6938   50.3875 C.3     1  ZINC001085817863   -0.1400
     13 C13        -2.4688    6.5315   51.6033 C.3     1  ZINC001085817863    0.0000
     14 N14        -2.3876    5.3003   52.4133 N.3     1  ZINC001085817863   -0.4400
     15 C15        -1.7693    5.5685   53.7185 C.3     1  ZINC001085817863    0.0700
     16 C16        -1.9213    4.3590   54.6044 C.ar    1  ZINC001085817863   -0.1300
     17 C17        -0.8087    3.6283   54.9920 C.ar    1  ZINC001085817863   -0.0700
     18 C18        -0.9965    2.5231   55.8081 C.ar    1  ZINC001085817863   -0.1700
     19 C19        -2.2771    2.1890   56.2053 C.ar    1  ZINC001085817863    0.1000
     20 N20        -3.3128    2.9074   55.8171 N.ar    1  ZINC001085817863   -0.4800
     21 C21        -3.1714    3.9674   55.0457 C.ar    1  ZINC001085817863    0.1200
     22 C22        -1.7173    3.1160   46.4850 C.2     1  ZINC001085817863   -0.1900
     23 C23        -1.4190    2.4396   45.3615 C.2     1  ZINC001085817863   -0.0200
     24 N24        -1.3068    1.1133   45.6618 N.pl3   1  ZINC001085817863   -0.4400
     25 C25        -0.9900    0.0598   44.6945 C.3     1  ZINC001085817863    0.0600
     26 H26        -0.0464   -1.7241   48.5760 H       1  ZINC001085817863    0.0600
     27 H27         0.5489   -0.8102   47.1694 H       1  ZINC001085817863    0.0500
     28 H28         0.3195    0.0109   48.7319 H       1  ZINC001085817863    0.0600
     29 H29        -1.8959   -1.1934   47.0118 H       1  ZINC001085817863    0.0600
     30 H30        -2.1252   -0.3724   48.5743 H       1  ZINC001085817863    0.1100
     31 H31        -0.2073    4.2167   48.3231 H       1  ZINC001085817863    0.0700
     32 H32         0.5810    4.1028   49.9149 H       1  ZINC001085817863    0.0700
     33 H33         0.6168    2.7137   48.8026 H       1  ZINC001085817863    0.0600
     34 H34        -2.5459    2.9817   51.3702 H       1  ZINC001085817863    0.0800
     35 H35        -0.8290    2.7457   51.7763 H       1  ZINC001085817863    0.1000
     36 H36        -1.3419    6.1927   49.7245 H       1  ZINC001085817863    0.0800
     37 H37        -2.8793    5.2246   49.8602 H       1  ZINC001085817863    0.1000
     38 H38        -1.7341    7.2853   51.8862 H       1  ZINC001085817863    0.0700
     39 H39        -3.4785    6.9346   51.5250 H       1  ZINC001085817863    0.0800
     40 H40        -0.7103    5.7872   53.5808 H       1  ZINC001085817863    0.0900
     41 H41        -2.2594    6.4236   54.1839 H       1  ZINC001085817863    0.0500
     42 H42         0.1806    3.9130   54.6656 H       1  ZINC001085817863    0.1300
     43 H43        -0.1524    1.9307   56.1291 H       1  ZINC001085817863    0.1300
     44 H44        -2.4318    1.3295   56.8407 H       1  ZINC001085817863    0.1600
     45 H45        -4.0432    4.5311   54.7481 H       1  ZINC001085817863    0.1500
     46 H46        -1.8670    4.1814   46.5788 H       1  ZINC001085817863    0.1600
     47 H47        -1.2861    2.8754   44.3823 H       1  ZINC001085817863    0.1600
     48 H48         0.0906   -0.0736   44.6433 H       1  ZINC001085817863    0.0800
     49 H49        -1.4567   -0.8739   45.0083 H       1  ZINC001085817863    0.0900
     50 H50        -1.3680    0.3428   43.7122 H       1  ZINC001085817863    0.0900
@<TRIPOS>BOND
     1     1     2    1
     2     1    26    1
     3     1    27    1
     4     1    28    1
     5     2     3    1
     6     2    29    1
     7     2    30    1
     8     3    24    1
     9     3     4    2
    10     4     5    1
    11     4    22    1
    12     5     6    2
    13     5     7   am
    14     7     8    1
    15     7     9    1
    16     8    31    1
    17     8    32    1
    18     8    33    1
    19     9    10    1
    20     9    34    1
    21     9    35    1
    22    10    11    1
    23    10    14    1
    24    10    12    1
    25    12    13    1
    26    12    36    1
    27    12    37    1
    28    13    14    1
    29    13    38    1
    30    13    39    1
    31    14    15    1
    32    15    16    1
    33    15    40    1
    34    15    41    1
    35    16    21   ar
    36    16    17   ar
    37    17    18   ar
    38    17    42    1
    39    18    19   ar
    40    18    43    1
    41    19    20   ar
    42    19    44    1
    43    20    21   ar
    44    21    45    1
    45    22    23    2
    46    22    46    1
    47    23    24    1
    48    23    47    1
    49    24    25    1
    50    25    48    1
    51    25    49    1
    52    25    50    1
@<TRIPOS>SUBSTRUCTURE
     1 ZINC001085817863        1 TEMP              0 ****  ****    0 ROOT


##########                                Name:    ZINC000746432885
##########                DOCK_Rotatable_Bonds:                  11
##########                         Heavy_Atoms:                  31
##########                    Molecular_Weight:              419.44
##########                DOCK_Rotatable_Bonds:                  11
##########                       Formal_Charge:           0.0199995
##########                     HBond_Acceptors:                   9
##########                        HBond_Donors:                   2
##########                         Heavy_Atoms:                  31
##########                          Grid_Score:          -28.782339
##########                     Grid_vdw_energy:          -27.380680
##########                      Grid_es_energy:           -1.401660
##########           Internal_energy_repulsive:           16.464985

@<TRIPOS>MOLECULE
ZINC000746432885
 52 54 1 0 0
SMALL
USER_CHARGES


@<TRIPOS>ATOM
      1 C1         -8.4576   -0.3498   65.6925 C.3     1  ZINC000746432885    0.0300
      2 O2         -9.6419    0.0501   64.9997 O.3     1  ZINC000746432885   -0.3200
      3 C3         -9.7049   -0.2324   63.6718 C.ar    1  ZINC000746432885    0.1300
      4 C4         -8.6249   -0.8272   63.0359 C.ar    1  ZINC000746432885   -0.2000
      5 C5         -8.6914   -1.1131   61.6861 C.ar    1  ZINC000746432885   -0.0800
      6 C6         -9.8330   -0.8067   60.9687 C.ar    1  ZINC000746432885   -0.1400
      7 C7        -10.9107   -0.2138   61.6002 C.ar    1  ZINC000746432885   -0.0600
      8 C8        -12.1537    0.1185   60.8154 C.3     1  ZINC000746432885    0.2300
      9 N9        -11.7939    0.3840   59.4203 N.am    1  ZINC000746432885   -0.6900
     10 C10       -11.4281    1.6252   59.0432 C.2     1  ZINC000746432885    0.5200
     11 O11       -11.3954    2.5226   59.8597 O.2     1  ZINC000746432885   -0.5100
     12 C12       -11.0632    1.8963   57.6209 C.2     1  ZINC000746432885    0.5100
     13 O13       -11.0786    3.0336   57.1964 O.2     1  ZINC000746432885   -0.5100
     14 N14       -10.7166    0.8784   56.8083 N.am    1  ZINC000746432885   -0.6100
     15 C15       -10.3716    1.1335   55.4707 C.2     1  ZINC000746432885    0.0000
     16 C16        -9.1413    0.9753   54.9168 C.2     1  ZINC000746432885    0.0400
     17 N17        -9.2301    1.3264   53.6139 N.pl3   1  ZINC000746432885   -0.3800
     18 C18        -8.1356    1.3067   52.6404 C.3     1  ZINC000746432885    0.2500
     19 C19        -8.1538    0.0304   51.9073 C.1     1  ZINC000746432885    0.1900
     20 N20        -8.1680   -0.9545   51.3414 N.1     1  ZINC000746432885   -0.3900
     21 N21       -10.5522    1.7117   53.3584 N.2     1  ZINC000746432885   -0.2800
     22 C22       -11.2379    1.5917   54.4660 C.2     1  ZINC000746432885    0.0700
     23 C23       -13.1109   -1.0440   60.8748 C.ar    1  ZINC000746432885   -0.0500
     24 C24       -13.8111   -1.3035   62.0384 C.ar    1  ZINC000746432885   -0.1500
     25 C25       -14.6904   -2.3690   62.0958 C.ar    1  ZINC000746432885   -0.0700
     26 C26       -14.8714   -3.1771   60.9901 C.ar    1  ZINC000746432885   -0.2000
     27 C27       -14.1701   -2.9188   59.8214 C.ar    1  ZINC000746432885    0.1300
     28 O28       -14.3464   -3.7123   58.7323 O.3     1  ZINC000746432885   -0.3200
     29 C29       -14.7358   -3.0689   57.5172 C.3     1  ZINC000746432885    0.0300
     30 C30       -13.2923   -1.8459   59.7647 C.ar    1  ZINC000746432885   -0.1300
     31 C31       -10.8515    0.0685   62.9511 C.ar    1  ZINC000746432885   -0.1300
     32 H32        -7.5927    0.1419   65.2471 H       1  ZINC000746432885    0.0600
     33 H33        -8.5370   -0.0653   66.7417 H       1  ZINC000746432885    0.1000
     34 H34        -8.3400   -1.4308   65.6170 H       1  ZINC000746432885    0.0600
     35 H35        -7.7327   -1.0661   63.5957 H       1  ZINC000746432885    0.1300
     36 H36        -7.8509   -1.5763   61.1906 H       1  ZINC000746432885    0.1300
     37 H37        -9.8829   -1.0303   59.9134 H       1  ZINC000746432885    0.1200
     38 H38       -12.6279    1.0019   61.2429 H       1  ZINC000746432885    0.1200
     39 H39       -11.8189   -0.3334   58.7679 H       1  ZINC000746432885    0.4200
     40 H40       -10.7054   -0.0304   57.1472 H       1  ZINC000746432885    0.4200
     41 H41        -8.2527    0.6314   55.4253 H       1  ZINC000746432885    0.1900
     42 H42        -8.2592    2.1310   51.9380 H       1  ZINC000746432885    0.1300
     43 H43        -7.1840    1.4129   53.1613 H       1  ZINC000746432885    0.1500
     44 H44       -12.2878    1.8134   54.5879 H       1  ZINC000746432885    0.2100
     45 H45       -13.6707   -0.6731   62.9041 H       1  ZINC000746432885    0.1200
     46 H46       -15.2360   -2.5699   63.0061 H       1  ZINC000746432885    0.1300
     47 H47       -15.5581   -4.0094   61.0357 H       1  ZINC000746432885    0.1300
     48 H48       -14.8417   -3.8145   56.7291 H       1  ZINC000746432885    0.1000
     49 H49       -15.6875   -2.5587   57.6650 H       1  ZINC000746432885    0.0600
     50 H50       -13.9749   -2.3429   57.2306 H       1  ZINC000746432885    0.0600
     51 H51       -12.7452   -1.6427   58.8560 H       1  ZINC000746432885    0.1400
     52 H52       -11.6935    0.5317   63.4440 H       1  ZINC000746432885    0.1300
@<TRIPOS>BOND
     1     1     2    1
     2     1    32    1
     3     1    33    1
     4     1    34    1
     5     2     3    1
     6     3    31   ar
     7     3     4   ar
     8     4     5   ar
     9     4    35    1
    10     5     6   ar
    11     5    36    1
    12     6     7   ar
    13     6    37    1
    14     7     8    1
    15     7    31   ar
    16     8     9    1
    17     8    23    1
    18     8    38    1
    19     9    10   am
    20     9    39    1
    21    10    11    2
    22    10    12    1
    23    12    13    2
    24    12    14   am
    25    14    15    1
    26    14    40    1
    27    15    22    1
    28    15    16    2
    29    16    17    1
    30    16    41    1
    31    17    18    1
    32    17    21    1
    33    18    19    1
    34    18    42    1
    35    18    43    1
    36    19    20    3
    37    21    22    2
    38    22    44    1
    39    23    30   ar
    40    23    24   ar
    41    24    25   ar
    42    24    45    1
    43    25    26   ar
    44    25    46    1
    45    26    27   ar
    46    26    47    1
    47    27    28    1
    48    27    30   ar
    49    28    29    1
    50    29    48    1
    51    29    49    1
    52    29    50    1
    53    30    51    1
    54    31    52    1
@<TRIPOS>SUBSTRUCTURE
     1 ZINC000746432885        1 TEMP              0 ****  ****    0 ROOT


##########                                Name:    ZINC000286156371
##########                DOCK_Rotatable_Bonds:                   7
##########                         Heavy_Atoms:                  25
##########                    Molecular_Weight:             350.418
##########                DOCK_Rotatable_Bonds:                   7
##########                       Formal_Charge:          0.00999908
##########                     HBond_Acceptors:                   8
##########                        HBond_Donors:                   2
##########                         Heavy_Atoms:                  25
##########                          Grid_Score:          -28.777790
##########                     Grid_vdw_energy:          -26.917652
##########                      Grid_es_energy:           -1.860139
##########           Internal_energy_repulsive:           13.583831

@<TRIPOS>MOLECULE
ZINC000286156371
 51 53 1 0 0
SMALL
USER_CHARGES


@<TRIPOS>ATOM
      1 C1          1.8139    5.2214   53.6859 C.3     1  <0>        -0.1800
      2 C2          0.9605    4.0101   54.0673 C.3     1  <0>         0.1400
      3 C3          0.5729    3.2408   52.8030 C.3     1  <0>        -0.1800
      4 C4          1.7607    3.0948   54.9962 C.3     1  <0>        -0.1400
      5 O5         -0.2408    4.4596   54.7478 O.3     1  <0>        -0.3600
      6 C6         -1.2811    4.8242   53.9748 C.2     1  <0>         0.6800
      7 O7         -1.1853    5.7898   53.2433 O.2     1  <0>        -0.5600
      8 N8         -2.4286    4.1185   54.0124 N.am    1  <0>        -0.5800
      9 C9         -2.6803    2.9316   54.8500 C.3     1  <0>         0.0700
     10 C10        -4.2198    2.8821   55.0152 C.3     1  <0>         0.0900
     11 H11        -4.5582    1.8666   55.2207 H       1  <0>         0.0900
     12 O12        -4.6543    3.7807   56.0378 O.3     1  <0>        -0.5500
     13 C13        -4.6985    3.3557   53.6173 C.3     1  <0>        -0.1200
     14 C14        -3.6390    4.4086   53.2298 C.3     1  <0>         0.1500
     15 H15        -4.0068    5.4077   53.4632 H       1  <0>         0.1100
     16 C16        -3.3299    4.3070   51.7583 C.2     1  <0>         0.5200
     17 O17        -3.8809    5.0464   50.9705 O.2     1  <0>        -0.4900
     18 N18        -2.4411    3.3945   51.3179 N.am    1  <0>        -0.6300
     19 C19        -2.1523    3.3012   49.9496 C.2     1  <0>         0.3000
     20 N20        -2.5254    2.3301   49.1470 N.2     1  <0>        -0.3200
     21 N21        -2.0385    2.6123   47.8688 N.pl3   1  <0>        -0.3600
     22 C22        -2.2097    1.8116   46.6526 C.3     1  <0>         0.1400
     23 C23        -1.8999    2.6896   45.4357 C.3     1  <0>        -0.1400
     24 C24        -0.5492    3.3835   45.6347 C.3     1  <0>        -0.1300
     25 C25        -0.6796    4.4311   46.7481 C.3     1  <0>        -0.0600
     26 C26        -1.3605    3.7821   47.9279 C.2     1  <0>         0.0900
     27 C27        -1.4181    4.2333   49.1957 C.2     1  <0>        -0.2600
     28 H28         1.2439    5.8735   53.0241 H       1  <0>         0.0900
     29 H29         2.0901    5.7695   54.5866 H       1  <0>         0.0600
     30 H30         2.7158    4.8841   53.1750 H       1  <0>         0.0700
     31 H31         1.4748    2.9034   52.2921 H       1  <0>         0.0700
     32 H32        -0.0350    2.3778   53.0747 H       1  <0>         0.0600
     33 H33         0.0029    3.8929   52.1412 H       1  <0>         0.0900
     34 H34         2.0368    3.6429   55.8970 H       1  <0>         0.0700
     35 H35         1.1527    2.2319   55.2680 H       1  <0>         0.0700
     36 H36         2.6626    2.7575   54.4853 H       1  <0>         0.0800
     37 H37        -2.3234    2.0315   54.3493 H       1  <0>         0.0800
     38 H38        -2.1980    3.0433   55.8210 H       1  <0>         0.0900
     39 H39        -4.0884    3.7875   56.8219 H       1  <0>         0.3900
     40 H40        -4.7010    2.5269   52.9093 H       1  <0>         0.1000
     41 H41        -5.6864    3.8117   53.6822 H       1  <0>         0.1100
     42 H42        -2.0012    2.8024   51.9479 H       1  <0>         0.4200
     43 H43        -1.5259    0.9631   46.6746 H       1  <0>         0.0800
     44 H44        -3.2375    1.4536   46.5927 H       1  <0>         0.0900
     45 H45        -1.8607    2.0688   44.5405 H       1  <0>         0.0900
     46 H46        -2.6810    3.4414   45.3219 H       1  <0>         0.0800
     47 H47         0.2017    2.6450   45.9156 H       1  <0>         0.0700
     48 H48        -0.2509    3.8728   44.7075 H       1  <0>         0.0800
     49 H49         0.3101    4.7812   47.0415 H       1  <0>         0.0900
     50 H50        -1.2777    5.2710   46.3946 H       1  <0>         0.0900
     51 H51        -0.9771    5.1467   49.5670 H       1  <0>         0.1700
@<TRIPOS>BOND
     1     1     2    1
     2     1    28    1
     3     1    29    1
     4     1    30    1
     5     2     3    1
     6     2     4    1
     7     2     5    1
     8     3    31    1
     9     3    32    1
    10     3    33    1
    11     4    34    1
    12     4    35    1
    13     4    36    1
    14     5     6    1
    15     6     7    2
    16     6     8   am
    17     8    14    1
    18     8     9    1
    19     9    10    1
    20     9    37    1
    21     9    38    1
    22    10    11    1
    23    10    12    1
    24    10    13    1
    25    12    39    1
    26    13    14    1
    27    13    40    1
    28    13    41    1
    29    14    15    1
    30    14    16    1
    31    16    17    2
    32    16    18   am
    33    18    19    1
    34    18    42    1
    35    19    27    1
    36    19    20    2
    37    20    21    1
    38    21    26    1
    39    21    22    1
    40    22    23    1
    41    22    43    1
    42    22    44    1
    43    23    24    1
    44    23    45    1
    45    23    46    1
    46    24    25    1
    47    24    47    1
    48    24    48    1
    49    25    26    1
    50    25    49    1
    51    25    50    1
    52    26    27    2
    53    27    51    1
@<TRIPOS>SUBSTRUCTURE
     1 <0>         1 TEMP              0 ****  ****    0 ROOT


##########                                Name:    ZINC000893400114
##########                DOCK_Rotatable_Bonds:                   6
##########                         Heavy_Atoms:                  27
##########                    Molecular_Weight:             381.472
##########                DOCK_Rotatable_Bonds:                   6
##########                       Formal_Charge:           0.0300001
##########                     HBond_Acceptors:                   8
##########                        HBond_Donors:                   1
##########                         Heavy_Atoms:                  27
##########                          Grid_Score:          -28.757343
##########                     Grid_vdw_energy:          -28.264551
##########                      Grid_es_energy:           -0.492793
##########           Internal_energy_repulsive:           84.233604

@<TRIPOS>MOLECULE
ZINC000893400114
 58 61 1 0 0
SMALL
USER_CHARGES


@<TRIPOS>ATOM
      1 O1         -1.5050    3.8083   48.2951 O.2     1  ZINC000893400114   -0.5600
      2 C2         -1.4729    2.7366   48.8686 C.2     1  ZINC000893400114    0.7100
      3 N3         -2.1246    2.5782   50.0377 N.am    1  ZINC000893400114   -0.7300
      4 C4         -2.8668    3.6989   50.6203 C.3     1  ZINC000893400114    0.1400
      5 H5         -3.6403    4.0415   49.9329 H       1  ZINC000893400114    0.1200
      6 C6         -1.9066    4.8577   50.9753 C.3     1  ZINC000893400114   -0.1400
      7 C7         -1.5931    4.5635   52.4592 C.3     1  ZINC000893400114    0.1000
      8 N8         -2.7434    3.8013   52.9587 N.am    1  ZINC000893400114   -0.6200
      9 C9         -3.0564    3.6118   54.3774 C.3     1  ZINC000893400114    0.1600
     10 C10        -1.9831    2.7323   55.0259 C.3     1  ZINC000893400114   -0.1700
     11 C11        -2.2752    2.6048   56.5233 C.3     1  ZINC000893400114    0.0700
     12 O12        -2.3151    3.9063   57.1119 O.3     1  ZINC000893400114   -0.3800
     13 C13        -3.3311    4.7575   56.5777 C.3     1  ZINC000893400114    0.0700
     14 C14        -3.0814    4.9714   55.0825 C.3     1  ZINC000893400114   -0.1700
     15 C15        -3.4761    3.2985   51.9458 C.2     1  ZINC000893400114    0.5100
     16 O16        -4.4754    2.6244   52.0792 O.2     1  ZINC000893400114   -0.4900
     17 N17        -0.7901    1.7056   48.3326 N.am    1  ZINC000893400114   -0.6300
     18 C18        -0.7417    0.3977   49.0054 C.3     1  ZINC000893400114    0.0800
     19 C19        -1.1193   -0.6840   47.9869 C.3     1  ZINC000893400114    0.0500
     20 O20        -0.3038   -0.5388   46.8218 O.3     1  ZINC000893400114   -0.3800
     21 C21        -0.4816    0.7017   46.1337 C.3     1  ZINC000893400114    0.0600
     22 C22        -0.0760    1.8528   47.0545 C.3     1  ZINC000893400114    0.1400
     23 H23         0.9984    1.8178   47.2344 H       1  ZINC000893400114    0.0800
     24 C24        -0.4465    3.1875   46.4046 C.3     1  ZINC000893400114   -0.1200
     25 C25         0.1428    3.2489   44.9940 C.3     1  ZINC000893400114    0.0700
     26 H26        -0.3156    2.4832   44.3682 H       1  ZINC000893400114    0.0800
     27 C27         1.6700    3.0308   45.0543 C.3     1  ZINC000893400114   -0.1500
     28 C28         2.1890    4.0384   43.9926 C.3     1  ZINC000893400114   -0.1600
     29 C29         1.1662    5.1909   44.1561 C.3     1  ZINC000893400114    0.0500
     30 O30        -0.0893    4.5434   44.4265 O.3     1  ZINC000893400114   -0.3800
     31 H31        -2.1024    1.7221   50.4932 H       1  ZINC000893400114    0.4000
     32 H32        -1.0015    4.8140   50.3694 H       1  ZINC000893400114    0.1000
     33 H33        -2.4018    5.8224   50.8652 H       1  ZINC000893400114    0.1000
     34 H34        -0.6827    3.9699   52.5418 H       1  ZINC000893400114    0.0700
     35 H35        -1.4882    5.4955   53.0145 H       1  ZINC000893400114    0.0800
     36 H36        -4.0305    3.1326   54.4749 H       1  ZINC000893400114    0.0900
     37 H37        -1.9961    1.7437   54.5668 H       1  ZINC000893400114    0.0800
     38 H38        -1.0035    3.1883   54.8834 H       1  ZINC000893400114    0.0900
     39 H39        -3.2370    2.1120   56.6653 H       1  ZINC000893400114    0.0500
     40 H40        -1.4908    2.0151   56.9977 H       1  ZINC000893400114    0.1000
     41 H41        -4.3066    4.2928   56.7205 H       1  ZINC000893400114    0.0500
     42 H42        -3.3073    5.7185   57.0914 H       1  ZINC000893400114    0.1000
     43 H43        -2.1238    5.4727   54.9412 H       1  ZINC000893400114    0.0900
     44 H44        -3.8797    5.5842   54.6640 H       1  ZINC000893400114    0.0700
     45 H45         0.2656    0.2144   49.3793 H       1  ZINC000893400114    0.0800
     46 H46        -1.4496    0.3848   49.8341 H       1  ZINC000893400114    0.0800
     47 H47        -0.9567   -1.6688   48.4247 H       1  ZINC000893400114    0.1100
     48 H48        -2.1686   -0.5754   47.7127 H       1  ZINC000893400114    0.0500
     49 H49         0.1398    0.7138   45.2384 H       1  ZINC000893400114    0.1300
     50 H50        -1.5286    0.8154   45.8527 H       1  ZINC000893400114    0.0500
     51 H51        -1.5314    3.2760   46.3493 H       1  ZINC000893400114    0.0800
     52 H52        -0.0452    4.0063   47.0020 H       1  ZINC000893400114    0.1100
     53 H53         2.0579    3.2750   46.0433 H       1  ZINC000893400114    0.0800
     54 H54         1.9270    2.0084   44.7771 H       1  ZINC000893400114    0.0800
     55 H55         3.1990    4.3730   44.2293 H       1  ZINC000893400114    0.0800
     56 H56         2.1432    3.6117   42.9906 H       1  ZINC000893400114    0.0800
     57 H57         1.4494    5.8323   44.9906 H       1  ZINC000893400114    0.0600
     58 H58         1.1009    5.7721   43.2363 H       1  ZINC000893400114    0.0800
@<TRIPOS>BOND
     1     1     2    2
     2     2     3   am
     3     2    17   am
     4     3     4    1
     5     3    31    1
     6     4     5    1
     7     4    15    1
     8     4     6    1
     9     6     7    1
    10     6    32    1
    11     6    33    1
    12     7     8    1
    13     7    34    1
    14     7    35    1
    15     8     9    1
    16     8    15   am
    17     9    14    1
    18     9    10    1
    19     9    36    1
    20    10    11    1
    21    10    37    1
    22    10    38    1
    23    11    12    1
    24    11    39    1
    25    11    40    1
    26    12    13    1
    27    13    14    1
    28    13    41    1
    29    13    42    1
    30    14    43    1
    31    14    44    1
    32    15    16    2
    33    17    22    1
    34    17    18    1
    35    18    19    1
    36    18    45    1
    37    18    46    1
    38    19    20    1
    39    19    47    1
    40    19    48    1
    41    20    21    1
    42    21    22    1
    43    21    49    1
    44    21    50    1
    45    22    23    1
    46    22    24    1
    47    24    25    1
    48    24    51    1
    49    24    52    1
    50    25    26    1
    51    25    30    1
    52    25    27    1
    53    27    28    1
    54    27    53    1
    55    27    54    1
    56    28    29    1
    57    28    55    1
    58    28    56    1
    59    29    30    1
    60    29    57    1
    61    29    58    1
@<TRIPOS>SUBSTRUCTURE
     1 ZINC000893400114        1 TEMP              0 ****  ****    0 ROOT


##########                                Name:    ZINC000530457945
##########                DOCK_Rotatable_Bonds:                   4
##########                         Heavy_Atoms:                  25
##########                    Molecular_Weight:             355.827
##########                DOCK_Rotatable_Bonds:                   4
##########                       Formal_Charge:           0.0199997
##########                     HBond_Acceptors:                   7
##########                        HBond_Donors:                   1
##########                         Heavy_Atoms:                  25
##########                          Grid_Score:          -28.754271
##########                     Grid_vdw_energy:          -27.583519
##########                      Grid_es_energy:           -1.170751
##########           Internal_energy_repulsive:           34.942410

@<TRIPOS>MOLECULE
ZINC000530457945
 43 46 1 0 0
SMALL
USER_CHARGES


@<TRIPOS>ATOM
      1 C1         -4.4173    2.9766   54.5566 C.3     1  ZINC000530457945   -0.1700
      2 C2         -5.0957    3.9414   53.5819 C.3     1  ZINC000530457945    0.0900
      3 H3         -5.5390    3.3839   52.7569 H       1  ZINC000530457945    0.1100
      4 C4         -4.0628    4.9511   53.0385 C.3     1  ZINC000530457945   -0.1200
      5 H5         -3.2202    5.0468   53.7232 H       1  ZINC000530457945    0.1100
      6 C6         -3.5890    4.5427   51.6674 C.2     1  ZINC000530457945    0.5300
      7 O7         -3.6272    5.3363   50.7513 O.2     1  ZINC000530457945   -0.4700
      8 N8         -3.1228    3.2952   51.4595 N.am    1  ZINC000530457945   -0.6200
      9 C9         -2.6852    2.9161   50.1886 C.2     1  ZINC000530457945    0.4800
     10 N10        -2.7333    1.6931   49.7009 N.2     1  ZINC000530457945   -0.3000
     11 N11        -2.1992    1.7452   48.4054 N.pl3   1  ZINC000530457945   -0.2800
     12 C12        -2.0003    0.8042   47.4451 C.2     1  ZINC000530457945    0.1400
     13 C13        -1.4514    1.1410   46.2548 C.2     1  ZINC000530457945   -0.0800
     14 Cl14       -1.2049   -0.0746   45.0403 Cl      1  ZINC000530457945   -0.0200
     15 C15        -1.0817    2.4702   45.9996 C.2     1  ZINC000530457945   -0.0500
     16 C16        -1.2784    3.4191   46.9570 C.2     1  ZINC000530457945   -0.0900
     17 C17        -1.8497    3.0473   48.1869 C.2     1  ZINC000530457945    0.3000
     18 N18        -2.1608    3.7344   49.2817 N.2     1  ZINC000530457945   -0.5500
     19 C19        -4.8692    6.2747   52.9726 C.3     1  ZINC000530457945   -0.1200
     20 C20        -5.7794    6.1491   54.2198 C.3     1  ZINC000530457945    0.0400
     21 N21        -6.1381    4.7127   54.2835 N.3     1  ZINC000530457945   -0.4900
     22 C22        -6.2691    4.2878   55.6077 C.ar    1  ZINC000530457945    0.1000
     23 C23        -7.3197    3.4549   55.9708 C.ar    1  ZINC000530457945   -0.1600
     24 C24        -7.4459    3.0362   57.2808 C.ar    1  ZINC000530457945   -0.1100
     25 C25        -6.5281    3.4459   58.2307 C.ar    1  ZINC000530457945   -0.1300
     26 C26        -5.4812    4.2752   57.8726 C.ar    1  ZINC000530457945   -0.1100
     27 C27        -5.3457    4.6928   56.5632 C.ar    1  ZINC000530457945   -0.1000
     28 H28        -5.1718    2.3482   55.0299 H       1  ZINC000530457945    0.0700
     29 H29        -3.7103    2.3492   54.0139 H       1  ZINC000530457945    0.0600
     30 H30        -3.8867    3.5452   55.3204 H       1  ZINC000530457945    0.0600
     31 H31        -3.0911    2.6608   52.1926 H       1  ZINC000530457945    0.4300
     32 H32        -2.2822   -0.2211   47.6337 H       1  ZINC000530457945    0.1800
     33 H33        -0.6433    2.7394   45.0500 H       1  ZINC000530457945    0.1600
     34 H34        -0.9979    4.4458   46.7736 H       1  ZINC000530457945    0.1700
     35 H35        -4.2096    7.1384   53.0561 H       1  ZINC000530457945    0.0900
     36 H36        -5.4627    6.3254   52.0597 H       1  ZINC000530457945    0.0900
     37 H37        -5.2366    6.4461   55.1171 H       1  ZINC000530457945    0.0700
     38 H38        -6.6755    6.7575   54.0984 H       1  ZINC000530457945    0.0900
     39 H39        -8.0372    3.1351   55.2297 H       1  ZINC000530457945    0.1200
     40 H40        -8.2625    2.3886   57.5639 H       1  ZINC000530457945    0.1200
     41 H41        -6.6296    3.1177   59.2547 H       1  ZINC000530457945    0.1200
     42 H42        -4.7661    4.5933   58.6169 H       1  ZINC000530457945    0.1300
     43 H43        -4.5276    5.3403   56.2841 H       1  ZINC000530457945    0.1300
@<TRIPOS>BOND
     1     1     2    1
     2     1    28    1
     3     1    29    1
     4     1    30    1
     5     2     3    1
     6     2    21    1
     7     2     4    1
     8     4     5    1
     9     4     6    1
    10     4    19    1
    11     6     7    2
    12     6     8   am
    13     8     9    1
    14     8    31    1
    15     9    18    1
    16     9    10    2
    17    10    11    1
    18    11    17    1
    19    11    12    1
    20    12    13    2
    21    12    32    1
    22    13    14    1
    23    13    15    1
    24    15    16    2
    25    15    33    1
    26    16    17    1
    27    16    34    1
    28    17    18    2
    29    19    20    1
    30    19    35    1
    31    19    36    1
    32    20    21    1
    33    20    37    1
    34    20    38    1
    35    21    22    1
    36    22    27   ar
    37    22    23   ar
    38    23    24   ar
    39    23    39    1
    40    24    25   ar
    41    24    40    1
    42    25    26   ar
    43    25    41    1
    44    26    27   ar
    45    26    42    1
    46    27    43    1
@<TRIPOS>SUBSTRUCTURE
     1 ZINC000530457945        1 TEMP              0 ****  ****    0 ROOT


##########                                Name:    ZINC001344051361
##########                DOCK_Rotatable_Bonds:                   8
##########                         Heavy_Atoms:                  28
##########                    Molecular_Weight:             379.456
##########                DOCK_Rotatable_Bonds:                   8
##########                       Formal_Charge:          -0.0100006
##########                     HBond_Acceptors:                   5
##########                        HBond_Donors:                   0
##########                         Heavy_Atoms:                  28
##########                          Grid_Score:          -28.739878
##########                     Grid_vdw_energy:          -28.956549
##########                      Grid_es_energy:            0.216671
##########           Internal_energy_repulsive:           21.833395

@<TRIPOS>MOLECULE
ZINC001344051361
 53 56 1 0 0
SMALL
USER_CHARGES


@<TRIPOS>ATOM
      1 O1         -5.8113    6.1753   53.1780 O.2     1  ZINC001344051361   -0.4800
      2 C2         -5.1592    5.2666   53.6350 C.2     1  ZINC001344051361    0.4800
      3 O3         -4.0466    4.8564   53.0063 O.3     1  ZINC001344051361   -0.3500
      4 C4         -3.4296    5.7904   52.0814 C.3     1  ZINC001344051361    0.0700
      5 C5         -2.8930    5.0277   50.8684 C.3     1  ZINC001344051361   -0.1000
      6 H6         -3.5671    5.1676   50.0233 H       1  ZINC001344051361    0.0900
      7 C7         -1.5034    5.5567   50.5063 C.3     1  ZINC001344051361   -0.1200
      8 C8         -0.9795    4.8171   49.2732 C.3     1  ZINC001344051361   -0.1300
      9 C9         -0.8604    3.3233   49.5910 C.3     1  ZINC001344051361    0.0800
     10 N10        -2.1588    2.8387   50.0790 N.am    1  ZINC001344051361   -0.6100
     11 C11        -2.7541    1.7742   49.5054 C.2     1  ZINC001344051361    0.5600
     12 O12        -3.8284    1.3830   49.9184 O.2     1  ZINC001344051361   -0.5300
     13 C13        -2.1006    1.0823   48.3740 C.ar    1  ZINC001344051361   -0.1300
     14 C14        -1.1653    0.0746   48.6146 C.ar    1  ZINC001344051361   -0.1000
     15 C15        -0.5594   -0.5674   47.5543 C.ar    1  ZINC001344051361   -0.1300
     16 C16        -0.8768   -0.2139   46.2549 C.ar    1  ZINC001344051361   -0.0900
     17 C17        -1.8028    0.7844   46.0095 C.ar    1  ZINC001344051361   -0.1300
     18 C18        -2.4205    1.4300   47.0607 C.ar    1  ZINC001344051361   -0.0600
     19 C19        -2.7964    3.5362   51.2040 C.3     1  ZINC001344051361    0.1200
     20 C20        -5.5917    4.5979   54.9144 C.3     1  ZINC001344051361    0.0200
     21 O21        -6.9751    4.2475   54.9895 O.3     1  ZINC001344051361   -0.2500
     22 C22        -7.3914    3.2090   54.2181 C.ar    1  ZINC001344051361    0.1200
     23 C23        -6.4707    2.4786   53.4807 C.ar    1  ZINC001344051361   -0.2000
     24 C24        -6.8963    1.4230   52.6976 C.ar    1  ZINC001344051361   -0.0800
     25 C25        -8.2386    1.0946   52.6481 C.ar    1  ZINC001344051361   -0.1500
     26 C26        -9.1580    1.8212   53.3818 C.ar    1  ZINC001344051361   -0.0800
     27 C27        -8.7367    2.8738   54.1712 C.ar    1  ZINC001344051361   -0.1400
     28 C28        -4.5887    3.6675   55.5993 C.3     1  ZINC001344051361   -0.1700
     29 C29        -4.9026    5.0355   56.2083 C.3     1  ZINC001344051361   -0.1100
     30 H30        -4.1703    6.5197   51.7534 H       1  ZINC001344051361    0.0800
     31 H31        -2.6082    6.3056   52.5792 H       1  ZINC001344051361    0.0800
     32 H32        -1.5657    6.6234   50.2907 H       1  ZINC001344051361    0.0700
     33 H33        -0.8237    5.3947   51.3429 H       1  ZINC001344051361    0.0700
     34 H34        -1.6714    4.9584   48.4429 H       1  ZINC001344051361    0.0700
     35 H35         0.0002    5.2105   49.0019 H       1  ZINC001344051361    0.0800
     36 H36        -0.5829    2.7787   48.6885 H       1  ZINC001344051361    0.1100
     37 H37        -0.1019    3.1725   50.3591 H       1  ZINC001344051361    0.0700
     38 H38        -0.9161   -0.2017   49.6285 H       1  ZINC001344051361    0.1400
     39 H39         0.1644   -1.3473   47.7391 H       1  ZINC001344051361    0.1300
     40 H40        -0.3995   -0.7193   45.4284 H       1  ZINC001344051361    0.1300
     41 H41        -2.0458    1.0558   44.9928 H       1  ZINC001344051361    0.1300
     42 H42        -3.1434    2.2089   46.8678 H       1  ZINC001344051361    0.1300
     43 H43        -2.1961    3.4030   52.1040 H       1  ZINC001344051361    0.0700
     44 H44        -3.7957    3.1317   51.3657 H       1  ZINC001344051361    0.1000
     45 H45        -5.4224    2.7352   53.5185 H       1  ZINC001344051361    0.1300
     46 H46        -6.1801    0.8542   52.1233 H       1  ZINC001344051361    0.1300
     47 H47        -8.5693    0.2692   52.0350 H       1  ZINC001344051361    0.1300
     48 H48       -10.2059    1.5630   53.3411 H       1  ZINC001344051361    0.1300
     49 H49        -9.4553    3.4411   54.7440 H       1  ZINC001344051361    0.1300
     50 H50        -4.9839    2.7879   56.1074 H       1  ZINC001344051361    0.1200
     51 H51        -3.6160    3.5391   55.1246 H       1  ZINC001344051361    0.1200
     52 H52        -4.1363    5.8072   56.1343 H       1  ZINC001344051361    0.1200
     53 H53        -5.5042    5.0559   57.1170 H       1  ZINC001344051361    0.1200
@<TRIPOS>BOND
     1     1     2    2
     2     2     3    1
     3     2    20    1
     4     3     4    1
     5     4     5    1
     6     4    30    1
     7     4    31    1
     8     5     6    1
     9     5    19    1
    10     5     7    1
    11     7     8    1
    12     7    32    1
    13     7    33    1
    14     8     9    1
    15     8    34    1
    16     8    35    1
    17     9    10    1
    18     9    36    1
    19     9    37    1
    20    10    11   am
    21    10    19    1
    22    11    12    2
    23    11    13    1
    24    13    18   ar
    25    13    14   ar
    26    14    15   ar
    27    14    38    1
    28    15    16   ar
    29    15    39    1
    30    16    17   ar
    31    16    40    1
    32    17    18   ar
    33    17    41    1
    34    18    42    1
    35    19    43    1
    36    19    44    1
    37    20    29    1
    38    20    21    1
    39    20    28    1
    40    21    22    1
    41    22    27   ar
    42    22    23   ar
    43    23    24   ar
    44    23    45    1
    45    24    25   ar
    46    24    46    1
    47    25    26   ar
    48    25    47    1
    49    26    27   ar
    50    26    48    1
    51    27    49    1
    52    28    29    1
    53    28    50    1
    54    28    51    1
    55    29    52    1
    56    29    53    1
@<TRIPOS>SUBSTRUCTURE
     1 ZINC001344051361        1 TEMP              0 ****  ****    0 ROOT


##########                                Name:    ZINC001162683355
##########                DOCK_Rotatable_Bonds:                   5
##########                         Heavy_Atoms:                  25
##########                    Molecular_Weight:             336.437
##########                DOCK_Rotatable_Bonds:                   5
##########                       Formal_Charge:          -0.0100002
##########                     HBond_Acceptors:                   5
##########                        HBond_Donors:                   1
##########                         Heavy_Atoms:                  25
##########                          Grid_Score:          -28.737886
##########                     Grid_vdw_energy:          -28.692099
##########                      Grid_es_energy:           -0.045789
##########           Internal_energy_repulsive:           12.180922

@<TRIPOS>MOLECULE
ZINC001162683355
 49 52 1 0 0
SMALL
USER_CHARGES


@<TRIPOS>ATOM
      1 C1          2.8892    3.9087   42.8300 C.3     1  ZINC001162683355    0.0200
      2 N2          1.6350    4.5867   43.1838 N.3     1  ZINC001162683355   -0.5400
      3 C3          1.7911    6.0474   43.1254 C.3     1  ZINC001162683355    0.0100
      4 C4          0.4486    6.7118   43.4418 C.3     1  ZINC001162683355    0.0600
      5 O5         -0.0078    6.2667   44.7220 O.3     1  ZINC001162683355   -0.3800
      6 C6         -0.1714    4.8489   44.8141 C.3     1  ZINC001162683355    0.0800
      7 H7         -0.9200    4.5214   44.0925 H       1  ZINC001162683355    0.0700
      8 C8         -0.6268    4.4778   46.2267 C.3     1  ZINC001162683355    0.1500
      9 N9         -1.7355    3.5235   46.1476 N.pl3   1  ZINC001162683355   -0.7300
     10 C10        -1.4791    2.1784   45.9058 C.ar    1  ZINC001162683355    0.4300
     11 C11        -1.3754    1.2853   46.9749 C.ar    1  ZINC001162683355   -0.0100
     12 C12        -1.1158   -0.0687   46.6946 C.ar    1  ZINC001162683355   -0.0400
     13 C13        -0.9726   -0.4638   45.3577 C.ar    1  ZINC001162683355   -0.1800
     14 C14        -1.0897    0.4773   44.3767 C.ar    1  ZINC001162683355    0.1000
     15 N15        -1.3344    1.7468   44.6639 N.ar    1  ZINC001162683355   -0.5400
     16 C16        -1.0631   -0.7476   47.9858 C.2     1  ZINC001162683355   -0.2200
     17 C17        -1.2773    0.1866   48.9295 C.2     1  ZINC001162683355    0.0800
     18 N18        -1.4709    1.4046   48.3426 N.pl3   1  ZINC001162683355   -0.4600
     19 C19        -1.7348    2.6531   49.0622 C.3     1  ZINC001162683355    0.1500
     20 C20        -0.5583    2.9826   49.9446 C.ar    1  ZINC001162683355   -0.1100
     21 C21         0.7291    2.8349   49.4635 C.ar    1  ZINC001162683355   -0.1000
     22 C22         1.8082    3.1413   50.2714 C.ar    1  ZINC001162683355   -0.1200
     23 C23         1.5999    3.5865   51.5634 C.ar    1  ZINC001162683355   -0.1100
     24 C24         0.3125    3.7292   52.0462 C.ar    1  ZINC001162683355   -0.1200
     25 C25        -0.7666    3.4270   51.2368 C.ar    1  ZINC001162683355   -0.1000
     26 C26         1.1648    4.1657   44.5115 C.3     1  ZINC001162683355    0.0300
     27 H27         3.6534    4.1494   43.5691 H       1  ZINC001162683355    0.0300
     28 H28         2.7273    2.8309   42.8128 H       1  ZINC001162683355    0.0700
     29 H29         3.2177    4.2425   41.8457 H       1  ZINC001162683355    0.0700
     30 H30         2.1152    6.3391   42.1264 H       1  ZINC001162683355    0.0900
     31 H31         2.5350    6.3634   43.8568 H       1  ZINC001162683355    0.0500
     32 H32        -0.2813    6.4382   42.6799 H       1  ZINC001162683355    0.0600
     33 H33         0.5720    7.7947   43.4556 H       1  ZINC001162683355    0.1000
     34 H34        -0.9567    5.3755   46.7497 H       1  ZINC001162683355    0.0700
     35 H35         0.2037    4.0259   46.7692 H       1  ZINC001162683355    0.0800
     36 H36        -2.6484    3.8301   46.2638 H       1  ZINC001162683355    0.4000
     37 H37        -0.7732   -1.4955   45.1081 H       1  ZINC001162683355    0.1300
     38 H38        -0.9810    0.1806   43.3440 H       1  ZINC001162683355    0.1500
     39 H39        -0.8820   -1.7993   48.1521 H       1  ZINC001162683355    0.1500
     40 H40        -1.2957    0.0007   49.9932 H       1  ZINC001162683355    0.1700
     41 H41        -2.6280    2.5370   49.6760 H       1  ZINC001162683355    0.0900
     42 H42        -1.8887    3.4598   48.3456 H       1  ZINC001162683355    0.0900
     43 H43         0.8920    2.4834   48.4554 H       1  ZINC001162683355    0.1200
     44 H44         2.8141    3.0301   49.8941 H       1  ZINC001162683355    0.1300
     45 H45         2.4430    3.8234   52.1954 H       1  ZINC001162683355    0.1300
     46 H46         0.1498    4.0771   53.0555 H       1  ZINC001162683355    0.1300
     47 H47        -1.7725    3.5384   51.6140 H       1  ZINC001162683355    0.1200
     48 H48         1.8986    4.4516   45.2651 H       1  ZINC001162683355    0.0500
     49 H49         1.0316    3.0839   44.5243 H       1  ZINC001162683355    0.0900
@<TRIPOS>BOND
     1     1     2    1
     2     1    27    1
     3     1    28    1
     4     1    29    1
     5     2    26    1
     6     2     3    1
     7     3     4    1
     8     3    30    1
     9     3    31    1
    10     4     5    1
    11     4    32    1
    12     4    33    1
    13     5     6    1
    14     6     7    1
    15     6     8    1
    16     6    26    1
    17     8     9    1
    18     8    34    1
    19     8    35    1
    20     9    10    1
    21     9    36    1
    22    10    15   ar
    23    10    11   ar
    24    11    18    1
    25    11    12   ar
    26    12    13   ar
    27    12    16    1
    28    13    14   ar
    29    13    37    1
    30    14    15   ar
    31    14    38    1
    32    16    17    2
    33    16    39    1
    34    17    18    1
    35    17    40    1
    36    18    19    1
    37    19    20    1
    38    19    41    1
    39    19    42    1
    40    20    25   ar
    41    20    21   ar
    42    21    22   ar
    43    21    43    1
    44    22    23   ar
    45    22    44    1
    46    23    24   ar
    47    23    45    1
    48    24    25   ar
    49    24    46    1
    50    25    47    1
    51    26    48    1
    52    26    49    1
@<TRIPOS>SUBSTRUCTURE
     1 ZINC001162683355        1 TEMP              0 ****  ****    0 ROOT


##########                                Name:    ZINC000750807956
##########                DOCK_Rotatable_Bonds:                  11
##########                         Heavy_Atoms:                  26
##########                    Molecular_Weight:             368.473
##########                DOCK_Rotatable_Bonds:                  11
##########                       Formal_Charge:        -8.12113e-07
##########                     HBond_Acceptors:                   7
##########                        HBond_Donors:                   1
##########                         Heavy_Atoms:                  26
##########                          Grid_Score:          -28.735806
##########                     Grid_vdw_energy:          -27.372845
##########                      Grid_es_energy:           -1.362960
##########           Internal_energy_repulsive:           84.047890

@<TRIPOS>MOLECULE
ZINC000750807956
 58 59 1 0 0
SMALL
USER_CHARGES


@<TRIPOS>ATOM
      1 C1        -14.4141   -2.0566   61.4323 C.3     1  ZINC000750807956   -0.1500
      2 C2        -13.4930   -0.8352   61.4608 C.3     1  ZINC000750807956    0.0700
      3 O3        -12.1219   -1.2674   61.6638 O.3     1  ZINC000750807956   -0.3600
      4 C4        -11.2664   -0.3643   62.1680 C.2     1  ZINC000750807956    0.4800
      5 O5        -11.6147    0.7839   62.3103 O.2     1  ZINC000750807956   -0.4900
      6 C6         -9.8717   -0.7824   62.5567 C.3     1  ZINC000750807956    0.1600
      7 H7         -9.8526   -1.8546   62.7517 H       1  ZINC000750807956    0.1000
      8 C8         -9.4403   -0.0238   63.8157 C.3     1  ZINC000750807956   -0.1300
      9 C9         -7.9768   -0.3471   64.1249 C.3     1  ZINC000750807956   -0.1200
     10 C10        -7.0948    0.1087   62.9602 C.3     1  ZINC000750807956   -0.1400
     11 C11        -7.4997   -0.6485   61.6915 C.3     1  ZINC000750807956    0.1100
     12 N12        -8.9401   -0.4634   61.4663 N.am    1  ZINC000750807956   -0.6100
     13 C13        -9.3969   -0.0051   60.2841 C.2     1  ZINC000750807956    0.5100
     14 O14       -10.5881    0.1433   60.1106 O.2     1  ZINC000750807956   -0.5000
     15 C15        -8.4278    0.3230   59.1777 C.3     1  ZINC000750807956   -0.1400
     16 C16        -9.1793    0.9851   58.0210 C.3     1  ZINC000750807956    0.2100
     17 H17       -10.2360    0.7240   58.0776 H       1  ZINC000750807956    0.1000
     18 N18        -8.6276    0.5154   56.7478 N.am    1  ZINC000750807956   -0.7000
     19 C19        -9.4550    0.1631   55.7439 C.2     1  ZINC000750807956    0.6600
     20 O20       -10.6586    0.2365   55.8944 O.2     1  ZINC000750807956   -0.5600
     21 O21        -8.9481   -0.2701   54.5743 O.3     1  ZINC000750807956   -0.3700
     22 C22        -9.5310    0.2745   53.3611 C.3     1  ZINC000750807956    0.1400
     23 C23        -8.5459    0.1075   52.2024 C.3     1  ZINC000750807956   -0.1800
     24 C24       -10.8279   -0.4708   53.0392 C.3     1  ZINC000750807956   -0.1400
     25 C25        -9.8335    1.7606   53.5632 C.3     1  ZINC000750807956   -0.1800
     26 C26        -9.0236    2.5043   58.1149 C.3     1  ZINC000750807956   -0.1800
     27 C27        -8.1542    3.1918   57.0602 C.3     1  ZINC000750807956   -0.1700
     28 C28        -9.6755    3.3502   57.0193 C.3     1  ZINC000750807956   -0.1800
     29 H29       -14.3380   -2.5912   62.3793 H       1  ZINC000750807956    0.0600
     30 H30       -15.4434   -1.7321   61.2799 H       1  ZINC000750807956    0.0800
     31 H31       -14.1168   -2.7169   60.6175 H       1  ZINC000750807956    0.0700
     32 H32       -13.5691   -0.3007   60.5138 H       1  ZINC000750807956    0.0700
     33 H33       -13.7903   -0.1750   62.2756 H       1  ZINC000750807956    0.0600
     34 H34        -9.5488    1.0480   63.6497 H       1  ZINC000750807956    0.0800
     35 H35       -10.0653   -0.3274   64.6555 H       1  ZINC000750807956    0.0800
     36 H36        -7.6744    0.1721   65.0343 H       1  ZINC000750807956    0.0800
     37 H37        -7.8645   -1.4221   64.2663 H       1  ZINC000750807956    0.0700
     38 H38        -7.2254    1.1793   62.8022 H       1  ZINC000750807956    0.0700
     39 H39        -6.0503   -0.1007   63.1911 H       1  ZINC000750807956    0.0800
     40 H40        -6.9433   -0.2577   60.8396 H       1  ZINC000750807956    0.0900
     41 H41        -7.2847   -1.7099   61.8151 H       1  ZINC000750807956    0.0800
     42 H42        -7.6650    1.0051   59.5532 H       1  ZINC000750807956    0.1200
     43 H43        -7.9542   -0.5936   58.8259 H       1  ZINC000750807956    0.1100
     44 H44        -7.6668    0.4579   56.6272 H       1  ZINC000750807956    0.4000
     45 H45        -8.3303   -0.9511   52.0585 H       1  ZINC000750807956    0.0600
     46 H46        -8.9834    0.5164   51.2917 H       1  ZINC000750807956    0.0700
     47 H47        -7.6220    0.6386   52.4317 H       1  ZINC000750807956    0.0900
     48 H48       -11.5297   -0.3519   53.8646 H       1  ZINC000750807956    0.0700
     49 H49       -11.2655   -0.0620   52.1285 H       1  ZINC000750807956    0.0800
     50 H50       -10.6123   -1.5296   52.8952 H       1  ZINC000750807956    0.0700
     51 H51        -8.9097    2.2916   53.7925 H       1  ZINC000750807956    0.0900
     52 H52       -10.2712    2.1694   52.6524 H       1  ZINC000750807956    0.0700
     53 H53       -10.5354    1.8795   54.3886 H       1  ZINC000750807956    0.0600
     54 H54        -9.0084    2.9138   59.1250 H       1  ZINC000750807956    0.1100
     55 H55        -7.5667    4.0538   57.3762 H       1  ZINC000750807956    0.0900
     56 H56        -7.6933    2.5618   56.2994 H       1  ZINC000750807956    0.0900
     57 H57       -10.2153    2.8244   56.2317 H       1  ZINC000750807956    0.1200
     58 H58       -10.0888    4.3164   57.3085 H       1  ZINC000750807956    0.0900
@<TRIPOS>BOND
     1     1     2    1
     2     1    29    1
     3     1    30    1
     4     1    31    1
     5     2     3    1
     6     2    32    1
     7     2    33    1
     8     3     4    1
     9     4     5    2
    10     4     6    1
    11     6     7    1
    12     6    12    1
    13     6     8    1
    14     8     9    1
    15     8    34    1
    16     8    35    1
    17     9    10    1
    18     9    36    1
    19     9    37    1
    20    10    11    1
    21    10    38    1
    22    10    39    1
    23    11    12    1
    24    11    40    1
    25    11    41    1
    26    12    13   am
    27    13    14    2
    28    13    15    1
    29    15    16    1
    30    15    42    1
    31    15    43    1
    32    16    17    1
    33    16    18    1
    34    16    26    1
    35    18    19   am
    36    18    44    1
    37    19    20    2
    38    19    21    1
    39    21    22    1
    40    22    23    1
    41    22    24    1
    42    22    25    1
    43    23    45    1
    44    23    46    1
    45    23    47    1
    46    24    48    1
    47    24    49    1
    48    24    50    1
    49    25    51    1
    50    25    52    1
    51    25    53    1
    52    26    28    1
    53    26    27    1
    54    26    54    1
    55    27    28    1
    56    27    55    1
    57    27    56    1
    58    28    57    1
    59    28    58    1
@<TRIPOS>SUBSTRUCTURE
     1 ZINC000750807956        1 TEMP              0 ****  ****    0 ROOT


##########                                Name:    ZINC000274267583
##########                DOCK_Rotatable_Bonds:                   5
##########                         Heavy_Atoms:                  24
##########                    Molecular_Weight:             349.407
##########                DOCK_Rotatable_Bonds:                   5
##########                       Formal_Charge:           0.0300001
##########                     HBond_Acceptors:                   7
##########                        HBond_Donors:                   1
##########                         Heavy_Atoms:                  24
##########                          Grid_Score:          -28.670094
##########                     Grid_vdw_energy:          -27.413935
##########                      Grid_es_energy:           -1.256159
##########           Internal_energy_repulsive:           15.800846

@<TRIPOS>MOLECULE
ZINC000274267583
 43 45 1 0 0
SMALL
USER_CHARGES


@<TRIPOS>ATOM
      1 C1          3.4314    0.3846   40.7459 C.3     1  ZINC000274267583    0.0200
      2 O2          3.6692    0.7250   42.1132 O.3     1  ZINC000274267583   -0.3100
      3 C3          2.5853    0.7883   42.9307 C.ar    1  ZINC000274267583    0.1900
      4 C4          2.7425    1.1198   44.2687 C.ar    1  ZINC000274267583   -0.2300
      5 C5          1.6390    1.1840   45.0974 C.ar    1  ZINC000274267583    0.0300
      6 C6          0.3789    0.9178   44.5945 C.ar    1  ZINC000274267583   -0.7200
      7 S7         -1.0263    0.9999   45.6543 S.o2    1  ZINC000274267583    2.7000
      8 O8         -2.0730    0.3077   44.9874 O.2     1  ZINC000274267583   -0.9500
      9 O9         -0.5695    0.6522   46.9542 O.2     1  ZINC000274267583   -0.9500
     10 N10        -1.4904    2.5877   45.7309 N.am    1  ZINC000274267583   -1.1100
     11 C11        -0.5603    3.5991   46.2390 C.3     1  ZINC000274267583    0.2100
     12 H12         0.3543    3.1128   46.5781 H       1  ZINC000274267583    0.1000
     13 C13        -0.2260    4.5905   45.1218 C.3     1  ZINC000274267583   -0.1800
     14 C14         0.5008    5.7900   45.7432 C.3     1  ZINC000274267583    0.0600
     15 O15        -0.4037    6.4575   46.6242 O.3     1  ZINC000274267583   -0.3100
     16 C16        -1.0817    5.7030   47.5293 C.ar    1  ZINC000274267583    0.1100
     17 C17        -1.6712    6.3419   48.6150 C.ar    1  ZINC000274267583   -0.1100
     18 C18        -2.3726    5.6138   49.5542 C.ar    1  ZINC000274267583   -0.1600
     19 C19        -2.4912    4.2391   49.4155 C.ar    1  ZINC000274267583    0.0900
     20 O20        -3.1840    3.5186   50.3375 O.3     1  ZINC000274267583   -0.3200
     21 C21        -3.6758    4.2260   51.4776 C.3     1  ZINC000274267583    0.0300
     22 C22        -1.9026    3.6011   48.3354 C.ar    1  ZINC000274267583   -0.1000
     23 C23        -1.1968    4.3312   47.3932 C.ar    1  ZINC000274267583   -0.1400
     24 C24         0.2195    0.5876   43.2614 C.ar    1  ZINC000274267583    0.0200
     25 C25         1.3192    0.5271   42.4273 C.ar    1  ZINC000274267583   -0.1700
     26 H26         2.9660   -0.5996   40.6921 H       1  ZINC000274267583    0.0600
     27 H27         2.7689    1.1247   40.2971 H       1  ZINC000274267583    0.0600
     28 H28         4.3778    0.3690   40.2055 H       1  ZINC000274267583    0.1100
     29 H29         3.7266    1.3271   44.6620 H       1  ZINC000274267583    0.1400
     30 H30         1.7609    1.4420   46.1390 H       1  ZINC000274267583    0.1400
     31 H31        -2.3783    2.8481   45.4394 H       1  ZINC000274267583    0.4200
     32 H32         0.4194    4.1108   44.3859 H       1  ZINC000274267583    0.1000
     33 H33        -1.1450    4.9264   44.6415 H       1  ZINC000274267583    0.0900
     34 H34         1.3695    5.4431   46.3029 H       1  ZINC000274267583    0.0700
     35 H35         0.8193    6.4740   44.9567 H       1  ZINC000274267583    0.1200
     36 H36        -1.5792    7.4125   48.7236 H       1  ZINC000274267583    0.1400
     37 H37        -2.8282    6.1138   50.3961 H       1  ZINC000274267583    0.1400
     38 H38        -2.8397    4.6681   52.0194 H       1  ZINC000274267583    0.0600
     39 H39        -4.3546    5.0140   51.1512 H       1  ZINC000274267583    0.0600
     40 H40        -4.2083    3.5356   52.1317 H       1  ZINC000274267583    0.1000
     41 H41        -1.9947    2.5305   48.2276 H       1  ZINC000274267583    0.1300
     42 H42        -0.7658    0.3804   42.8708 H       1  ZINC000274267583    0.1500
     43 H43         1.1942    0.2693   41.3860 H       1  ZINC000274267583    0.1400
@<TRIPOS>BOND
     1     1     2    1
     2     1    26    1
     3     1    27    1
     4     1    28    1
     5     2     3    1
     6     3    25   ar
     7     3     4   ar
     8     4     5   ar
     9     4    29    1
    10     5     6   ar
    11     5    30    1
    12     6     7    1
    13     6    24   ar
    14     7     8    2
    15     7     9    2
    16     7    10   am
    17    10    11    1
    18    10    31    1
    19    11    12    1
    20    11    23    1
    21    11    13    1
    22    13    14    1
    23    13    32    1
    24    13    33    1
    25    14    15    1
    26    14    34    1
    27    14    35    1
    28    15    16    1
    29    16    23   ar
    30    16    17   ar
    31    17    18   ar
    32    17    36    1
    33    18    19   ar
    34    18    37    1
    35    19    20    1
    36    19    22   ar
    37    20    21    1
    38    21    38    1
    39    21    39    1
    40    21    40    1
    41    22    23   ar
    42    22    41    1
    43    24    25   ar
    44    24    42    1
    45    25    43    1
@<TRIPOS>SUBSTRUCTURE
     1 ZINC000274267583        1 TEMP              0 ****  ****    0 ROOT


##########                                Name:    ZINC000549381790
##########                DOCK_Rotatable_Bonds:                   7
##########                         Heavy_Atoms:                  23
##########                    Molecular_Weight:             337.846
##########                DOCK_Rotatable_Bonds:                   7
##########                       Formal_Charge:           0.0300006
##########                     HBond_Acceptors:                   5
##########                        HBond_Donors:                   0
##########                         Heavy_Atoms:                  23
##########                          Grid_Score:          -28.663078
##########                     Grid_vdw_energy:          -27.708921
##########                      Grid_es_energy:           -0.954157
##########           Internal_energy_repulsive:           87.305450

@<TRIPOS>MOLECULE
ZINC000549381790
 47 49 1 0 0
SMALL
USER_CHARGES


@<TRIPOS>ATOM
      1 C1         -1.6979    4.1136   55.2358 C.3     1  ZINC000549381790   -0.1400
      2 C2         -3.1434    3.6474   55.0520 C.3     1  ZINC000549381790    0.1500
      3 H3         -3.2908    2.7004   55.5713 H       1  ZINC000549381790    0.0700
      4 C4         -4.0990    4.7001   55.6226 C.3     1  ZINC000549381790   -0.1300
      5 C5         -5.5419    4.2951   55.3123 C.3     1  ZINC000549381790   -0.1200
      6 C6         -5.7413    4.2329   53.7962 C.3     1  ZINC000549381790   -0.1400
      7 C7         -4.8043    3.1750   53.2049 C.3     1  ZINC000549381790    0.1000
      8 N8         -3.4267    3.4736   53.6209 N.am    1  ZINC000549381790   -0.6100
      9 C9         -2.4435    3.5908   52.7066 C.2     1  ZINC000549381790    0.5200
     10 O10        -1.3107    3.8376   53.0626 O.2     1  ZINC000549381790   -0.5000
     11 C11        -2.7518    3.4153   51.2419 C.3     1  ZINC000549381790    0.0400
     12 O12        -1.5354    3.2101   50.5204 O.3     1  ZINC000549381790   -0.2800
     13 C13        -1.6351    2.6309   49.2942 C.ar    1  ZINC000549381790    0.1100
     14 C14        -1.9787    3.3978   48.1911 C.ar    1  ZINC000549381790   -0.1700
     15 C15        -2.0798    2.8098   46.9447 C.ar    1  ZINC000549381790   -0.1600
     16 C16        -1.8382    1.4527   46.7966 C.ar    1  ZINC000549381790    0.1100
     17 O17        -1.9378    0.8740   45.5697 O.3     1  ZINC000549381790   -0.3000
     18 C18        -1.0708    1.3685   44.5470 C.3     1  ZINC000549381790    0.0900
     19 C19         0.3835    1.2376   45.0041 C.3     1  ZINC000549381790   -0.1600
     20 C20         1.4678    1.7894   44.0764 C.3     1  ZINC000549381790   -0.1700
     21 C21         1.1259    2.5230   45.3747 C.3     1  ZINC000549381790   -0.1700
     22 C22        -1.4943    0.6845   47.9006 C.ar    1  ZINC000549381790   -0.0300
     23 Cl23       -1.1912   -1.0148   47.7155 Cl      1  ZINC000549381790   -0.0400
     24 C24        -1.3876    1.2741   49.1459 C.ar    1  ZINC000549381790   -0.1000
     25 H25        -1.5248    5.0064   54.6349 H       1  ZINC000549381790    0.0600
     26 H26        -1.5209    4.3431   56.2865 H       1  ZINC000549381790    0.0500
     27 H27        -1.0180    3.3236   54.9170 H       1  ZINC000549381790    0.0800
     28 H28        -3.9640    4.7669   56.7021 H       1  ZINC000549381790    0.0800
     29 H29        -3.8872    5.6680   55.1684 H       1  ZINC000549381790    0.0700
     30 H30        -5.7454    3.3159   55.7458 H       1  ZINC000549381790    0.0700
     31 H31        -6.2250    5.0297   55.7386 H       1  ZINC000549381790    0.0700
     32 H32        -6.7751    3.9672   53.5758 H       1  ZINC000549381790    0.0800
     33 H33        -5.5139    5.2052   53.3592 H       1  ZINC000549381790    0.0700
     34 H34        -5.0889    2.1889   53.5719 H       1  ZINC000549381790    0.0800
     35 H35        -4.8702    3.1954   52.1172 H       1  ZINC000549381790    0.0800
     36 H36        -3.4032    2.5516   51.1087 H       1  ZINC000549381790    0.0900
     37 H37        -3.2510    4.3082   50.8661 H       1  ZINC000549381790    0.0900
     38 H38        -2.1676    4.4549   48.3061 H       1  ZINC000549381790    0.1400
     39 H39        -2.3474    3.4074   46.0859 H       1  ZINC000549381790    0.1400
     40 H40        -1.2183    0.7905   43.6347 H       1  ZINC000549381790    0.0700
     41 H41        -1.2979    2.4169   44.3537 H       1  ZINC000549381790    0.0700
     42 H42         0.6180    0.3386   45.5741 H       1  ZINC000549381790    0.1200
     43 H43         2.4161    1.2534   44.0359 H       1  ZINC000549381790    0.1000
     44 H44         1.1451    2.2456   43.1405 H       1  ZINC000549381790    0.1000
     45 H45         0.5783    3.4619   45.2931 H       1  ZINC000549381790    0.1000
     46 H46         1.8491    2.4696   46.1884 H       1  ZINC000549381790    0.1000
     47 H47        -1.1201    0.6769   50.0051 H       1  ZINC000549381790    0.1500
@<TRIPOS>BOND
     1     1     2    1
     2     1    25    1
     3     1    26    1
     4     1    27    1
     5     2     3    1
     6     2     8    1
     7     2     4    1
     8     4     5    1
     9     4    28    1
    10     4    29    1
    11     5     6    1
    12     5    30    1
    13     5    31    1
    14     6     7    1
    15     6    32    1
    16     6    33    1
    17     7     8    1
    18     7    34    1
    19     7    35    1
    20     8     9   am
    21     9    10    2
    22     9    11    1
    23    11    12    1
    24    11    36    1
    25    11    37    1
    26    12    13    1
    27    13    24   ar
    28    13    14   ar
    29    14    15   ar
    30    14    38    1
    31    15    16   ar
    32    15    39    1
    33    16    17    1
    34    16    22   ar
    35    17    18    1
    36    18    19    1
    37    18    40    1
    38    18    41    1
    39    19    21    1
    40    19    20    1
    41    19    42    1
    42    20    21    1
    43    20    43    1
    44    20    44    1
    45    21    45    1
    46    21    46    1
    47    22    23    1
    48    22    24   ar
    49    24    47    1
@<TRIPOS>SUBSTRUCTURE
     1 ZINC000549381790        1 TEMP              0 ****  ****    0 ROOT


##########                                Name:    ZINC000435292384
##########                DOCK_Rotatable_Bonds:                   6
##########                         Heavy_Atoms:                  22
##########                    Molecular_Weight:             326.503
##########                DOCK_Rotatable_Bonds:                   6
##########                       Formal_Charge:         -0.00999993
##########                     HBond_Acceptors:                   5
##########                        HBond_Donors:                   0
##########                         Heavy_Atoms:                  22
##########                          Grid_Score:          -28.656040
##########                     Grid_vdw_energy:          -28.130144
##########                      Grid_es_energy:           -0.525896
##########           Internal_energy_repulsive:           22.621326

@<TRIPOS>MOLECULE
ZINC000435292384
 52 53 1 0 0
SMALL
USER_CHARGES


@<TRIPOS>ATOM
      1 C1         -0.4885    1.0024   45.2688 C.3     1  ZINC000435292384   -0.1500
      2 C2         -1.7170    1.7196   45.8320 C.3     1  ZINC000435292384   -0.1200
      3 C3         -1.5269    1.9553   47.3318 C.3     1  ZINC000435292384   -0.1400
      4 C4         -1.2833    3.4441   47.5873 C.3     1  ZINC000435292384    0.1600
      5 H5         -1.7398    4.0291   46.7888 H       1  ZINC000435292384    0.0900
      6 C6          0.2219    3.7159   47.6222 C.3     1  ZINC000435292384   -0.1700
      7 N7         -1.8780    3.8228   48.8715 N.am    1  ZINC000435292384   -0.6100
      8 C8         -2.1938    2.8774   49.9487 C.3     1  ZINC000435292384    0.1200
      9 C9         -2.3749    3.7421   51.2159 C.3     1  ZINC000435292384   -0.1300
     10 H10        -1.4390    3.8253   51.7683 H       1  ZINC000435292384    0.1100
     11 C11        -3.4687    3.1902   52.0936 C.2     1  ZINC000435292384    0.5200
     12 O12        -4.2578    2.3857   51.6455 O.2     1  ZINC000435292384   -0.5200
     13 N13        -3.5699    3.5908   53.3764 N.am    1  ZINC000435292384   -0.6000
     14 C14        -4.6525    3.0311   54.2092 C.3     1  ZINC000435292384    0.1000
     15 C15        -4.1686    2.6731   55.6261 C.3     1  ZINC000435292384   -0.1300
     16 C16        -2.7989    2.0434   55.5625 C.3     1  ZINC000435292384   -0.1100
     17 C17        -1.7364    3.1281   55.7108 C.3     1  ZINC000435292384   -0.1200
     18 C18        -1.3830    3.8060   54.4541 C.3     1  ZINC000435292384   -0.0700
     19 H19        -1.0384    3.0674   53.7303 H       1  ZINC000435292384    0.0900
     20 S20        -0.0559    5.0019   54.7696 S.3     1  ZINC000435292384   -0.2500
     21 C21         1.4460    3.9990   54.5990 C.3     1  ZINC000435292384   -0.1200
     22 C22        -2.6101    4.5467   53.8817 C.3     1  ZINC000435292384    0.1400
     23 C23        -2.7840    5.1053   50.6117 C.3     1  ZINC000435292384   -0.1400
     24 C24        -2.1990    5.0816   49.2168 C.2     1  ZINC000435292384    0.5200
     25 O25        -2.0484    6.0556   48.5101 O.2     1  ZINC000435292384   -0.5200
     26 H26        -0.6239    0.8344   44.2004 H       1  ZINC000435292384    0.0500
     27 H27         0.3971    1.6169   45.4306 H       1  ZINC000435292384    0.0500
     28 H28        -0.3635    0.0446   45.7741 H       1  ZINC000435292384    0.0500
     29 H29        -1.8421    2.6773   45.3267 H       1  ZINC000435292384    0.0600
     30 H30        -2.6026    1.1050   45.6702 H       1  ZINC000435292384    0.0600
     31 H31        -2.4220    1.6367   47.8660 H       1  ZINC000435292384    0.0800
     32 H32        -0.6700    1.3813   47.6841 H       1  ZINC000435292384    0.0800
     33 H33         0.6783    3.1308   48.4206 H       1  ZINC000435292384    0.0700
     34 H34         0.6643    3.4340   46.6667 H       1  ZINC000435292384    0.0700
     35 H35         0.3954    4.7765   47.8043 H       1  ZINC000435292384    0.0600
     36 H36        -3.1160    2.3421   49.7223 H       1  ZINC000435292384    0.0900
     37 H37        -1.3726    2.1740   50.0861 H       1  ZINC000435292384    0.0800
     38 H38        -5.4561    3.7636   54.2842 H       1  ZINC000435292384    0.0700
     39 H39        -5.0391    2.1319   53.7295 H       1  ZINC000435292384    0.0900
     40 H40        -4.1226    3.5782   56.2318 H       1  ZINC000435292384    0.0700
     41 H41        -4.8682    1.9715   56.0805 H       1  ZINC000435292384    0.0800
     42 H42        -2.6940    1.3187   56.3699 H       1  ZINC000435292384    0.0700
     43 H43        -2.6740    1.5406   54.6035 H       1  ZINC000435292384    0.0600
     44 H44        -2.1004    3.8750   56.4163 H       1  ZINC000435292384    0.0800
     45 H45        -0.8354    2.6757   56.1251 H       1  ZINC000435292384    0.0600
     46 H46         1.4281    3.1907   55.3298 H       1  ZINC000435292384    0.0800
     47 H47         1.4906    3.5794   53.5940 H       1  ZINC000435292384    0.0800
     48 H48         2.3221    4.6247   54.7705 H       1  ZINC000435292384    0.1000
     49 H49        -2.2928    5.2023   53.0709 H       1  ZINC000435292384    0.0900
     50 H50        -3.0744    5.1417   54.6683 H       1  ZINC000435292384    0.0900
     51 H51        -3.8697    5.1950   50.5727 H       1  ZINC000435292384    0.1100
     52 H52        -2.3532    5.9233   51.1892 H       1  ZINC000435292384    0.1100
@<TRIPOS>BOND
     1     1     2    1
     2     1    26    1
     3     1    27    1
     4     1    28    1
     5     2     3    1
     6     2    29    1
     7     2    30    1
     8     3     4    1
     9     3    31    1
    10     3    32    1
    11     4     5    1
    12     4     6    1
    13     4     7    1
    14     6    33    1
    15     6    34    1
    16     6    35    1
    17     7    24   am
    18     7     8    1
    19     8     9    1
    20     8    36    1
    21     8    37    1
    22     9    10    1
    23     9    11    1
    24     9    23    1
    25    11    12    2
    26    11    13   am
    27    13    22    1
    28    13    14    1
    29    14    15    1
    30    14    38    1
    31    14    39    1
    32    15    16    1
    33    15    40    1
    34    15    41    1
    35    16    17    1
    36    16    42    1
    37    16    43    1
    38    17    18    1
    39    17    44    1
    40    17    45    1
    41    18    19    1
    42    18    20    1
    43    18    22    1
    44    20    21    1
    45    21    46    1
    46    21    47    1
    47    21    48    1
    48    22    49    1
    49    22    50    1
    50    23    24    1
    51    23    51    1
    52    23    52    1
    53    24    25    2
@<TRIPOS>SUBSTRUCTURE
     1 ZINC000435292384        1 TEMP              0 ****  ****    0 ROOT


##########                                Name:    ZINC001513543414
##########                DOCK_Rotatable_Bonds:                   6
##########                         Heavy_Atoms:                  26
##########                    Molecular_Weight:             364.488
##########                DOCK_Rotatable_Bonds:                   6
##########                       Formal_Charge:         -0.00999974
##########                     HBond_Acceptors:                   7
##########                        HBond_Donors:                   0
##########                         Heavy_Atoms:                  26
##########                          Grid_Score:          -28.647358
##########                     Grid_vdw_energy:          -27.538519
##########                      Grid_es_energy:           -1.108838
##########           Internal_energy_repulsive:           18.690521

@<TRIPOS>MOLECULE
ZINC001513543414
 58 61 1 0 0
SMALL
USER_CHARGES


@<TRIPOS>ATOM
      1 C1         -3.3393    6.3574   52.1401 C.3     1  ZINC001513543414   -0.1500
      2 C2         -2.0169    6.3500   51.3707 C.3     1  ZINC001513543414   -0.1200
      3 C3         -1.5981    4.9055   51.0903 C.3     1  ZINC001513543414    0.1100
      4 C4         -1.3959    4.1584   52.4101 C.3     1  ZINC001513543414   -0.1500
      5 C5         -2.6823    4.1998   50.2477 C.3     1  ZINC001513543414   -0.1500
      6 C6         -1.8335    3.3448   49.2676 C.3     1  ZINC001513543414   -0.1500
      7 C7         -0.6078    4.2688   49.0569 C.3     1  ZINC001513543414    0.0700
      8 H8         -0.8283    5.0235   48.3020 H       1  ZINC001513543414    0.0800
      9 C9          0.6132    3.4452   48.6423 C.3     1  ZINC001513543414    0.1100
     10 N10         0.3444    2.7833   47.3633 N.pl3   1  ZINC001513543414   -0.4600
     11 C11         0.1470    1.4470   47.1508 C.2     1  ZINC001513543414    0.1900
     12 C12         0.1647    0.3639   48.1984 C.3     1  ZINC001513543414    0.1800
     13 H13        -0.2781    0.7278   49.1255 H       1  ZINC001513543414    0.1000
     14 C14        -0.5981   -0.8863   47.6923 C.3     1  ZINC001513543414   -0.1500
     15 C15         0.0660   -2.0019   48.5446 C.3     1  ZINC001513543414   -0.1500
     16 C16         1.5196   -1.4970   48.6699 C.3     1  ZINC001513543414    0.0500
     17 O17         1.5099   -0.0834   48.4303 O.3     1  ZINC001513543414   -0.3500
     18 N18        -0.0601    1.2840   45.8748 N.2     1  ZINC001513543414   -0.2600
     19 N19        -0.0073    2.4175   45.2714 N.2     1  ZINC001513543414   -0.3100
     20 C20         0.2332    3.3731   46.1379 C.2     1  ZINC001513543414    0.3400
     21 N21         0.3591    4.7249   45.8598 N.3     1  ZINC001513543414   -0.4500
     22 C22        -0.8239    5.2280   45.1297 C.3     1  ZINC001513543414    0.0500
     23 C23        -0.2688    6.3200   44.1816 C.3     1  ZINC001513543414   -0.1500
     24 C24         1.0940    5.7082   43.7630 C.3     1  ZINC001513543414    0.0700
     25 H25         0.9631    4.9974   42.9471 H       1  ZINC001513543414    0.0800
     26 O26         2.0165    6.7351   43.3931 O.3     1  ZINC001513543414   -0.3800
     27 C27         1.5803    7.5408   42.2966 C.3     1  ZINC001513543414    0.0300
     28 C28         1.5599    4.9871   45.0454 C.3     1  ZINC001513543414    0.0600
     29 O29        -0.3827    4.8903   50.3323 O.3     1  ZINC001513543414   -0.3600
     30 H30        -3.6377    7.3866   52.3397 H       1  ZINC001513543414    0.0500
     31 H31        -4.1086    5.8651   51.5451 H       1  ZINC001513543414    0.0500
     32 H32        -3.2139    5.8259   53.0834 H       1  ZINC001513543414    0.0600
     33 H33        -2.1423    6.8815   50.4274 H       1  ZINC001513543414    0.0700
     34 H34        -1.2477    6.8423   51.9656 H       1  ZINC001513543414    0.0600
     35 H35        -2.3315    4.1491   52.9694 H       1  ZINC001513543414    0.0700
     36 H36        -1.0857    3.1339   52.2040 H       1  ZINC001513543414    0.0600
     37 H37        -0.6266    4.6598   52.9973 H       1  ZINC001513543414    0.0700
     38 H38        -3.3084    3.5647   50.8743 H       1  ZINC001513543414    0.0900
     39 H39        -3.2861    4.9272   49.7049 H       1  ZINC001513543414    0.0800
     40 H40        -1.5392    2.3999   49.7245 H       1  ZINC001513543414    0.0800
     41 H41        -2.3650    3.1773   48.3309 H       1  ZINC001513543414    0.0900
     42 H42         1.4762    4.1026   48.5370 H       1  ZINC001513543414    0.1000
     43 H43         0.8199    2.6934   49.4041 H       1  ZINC001513543414    0.1100
     44 H44        -1.6640   -0.8097   47.9072 H       1  ZINC001513543414    0.0900
     45 H45        -0.4244   -1.0486   46.6286 H       1  ZINC001513543414    0.0900
     46 H46        -0.4055   -2.0739   49.5248 H       1  ZINC001513543414    0.0800
     47 H47         0.0314   -2.9595   48.0250 H       1  ZINC001513543414    0.0900
     48 H48         1.8956   -1.6981   49.6730 H       1  ZINC001513543414    0.0700
     49 H49         2.1485   -1.9940   47.9313 H       1  ZINC001513543414    0.0700
     50 H50        -1.2850    4.4249   44.5548 H       1  ZINC001513543414    0.0600
     51 H51        -1.5438    5.6596   45.8252 H       1  ZINC001513543414    0.0900
     52 H52        -0.9189    6.4536   43.3169 H       1  ZINC001513543414    0.0800
     53 H53        -0.1277    7.2621   44.7113 H       1  ZINC001513543414    0.0900
     54 H54         2.3351    8.2961   42.0777 H       1  ZINC001513543414    0.0900
     55 H55         1.4314    6.9110   41.4196 H       1  ZINC001513543414    0.0400
     56 H56         0.6414    8.0301   42.5561 H       1  ZINC001513543414    0.0400
     57 H57         2.2512    5.6233   45.5982 H       1  ZINC001513543414    0.1000
     58 H58         2.0450    4.0460   44.7861 H       1  ZINC001513543414    0.0900
@<TRIPOS>BOND
     1     1     2    1
     2     1    30    1
     3     1    31    1
     4     1    32    1
     5     2     3    1
     6     2    33    1
     7     2    34    1
     8     3    29    1
     9     3     4    1
    10     3     5    1
    11     4    35    1
    12     4    36    1
    13     4    37    1
    14     5     6    1
    15     5    38    1
    16     5    39    1
    17     6     7    1
    18     6    40    1
    19     6    41    1
    20     7     8    1
    21     7     9    1
    22     7    29    1
    23     9    10    1
    24     9    42    1
    25     9    43    1
    26    10    20    1
    27    10    11    1
    28    11    12    1
    29    11    18    2
    30    12    13    1
    31    12    17    1
    32    12    14    1
    33    14    15    1
    34    14    44    1
    35    14    45    1
    36    15    16    1
    37    15    46    1
    38    15    47    1
    39    16    17    1
    40    16    48    1
    41    16    49    1
    42    18    19    1
    43    19    20    2
    44    20    21    1
    45    21    28    1
    46    21    22    1
    47    22    23    1
    48    22    50    1
    49    22    51    1
    50    23    24    1
    51    23    52    1
    52    23    53    1
    53    24    25    1
    54    24    26    1
    55    24    28    1
    56    26    27    1
    57    27    54    1
    58    27    55    1
    59    27    56    1
    60    28    57    1
    61    28    58    1
@<TRIPOS>SUBSTRUCTURE
     1 ZINC001513543414        1 TEMP              0 ****  ****    0 ROOT


##########                                Name:    ZINC000863208514
##########                DOCK_Rotatable_Bonds:                   6
##########                         Heavy_Atoms:                  19
##########                    Molecular_Weight:             368.657
##########                DOCK_Rotatable_Bonds:                   6
##########                       Formal_Charge:           0.0100005
##########                     HBond_Acceptors:                   7
##########                        HBond_Donors:                   2
##########                         Heavy_Atoms:                  19
##########                          Grid_Score:          -28.640064
##########                     Grid_vdw_energy:          -23.938831
##########                      Grid_es_energy:           -4.701234
##########           Internal_energy_repulsive:            9.033484

@<TRIPOS>MOLECULE
ZINC000863208514
 31 31 1 0 0
SMALL
USER_CHARGES


@<TRIPOS>ATOM
      1 C1         -7.0812    1.4737   67.0709 C.3     1  ZINC000863208514    0.0900
      2 N2         -7.9574    0.3419   66.7587 N.am    1  ZINC000863208514   -0.6100
      3 C3         -8.7855   -0.2550   67.8094 C.3     1  ZINC000863208514    0.0700
      4 C4         -8.0016   -0.1501   65.5047 C.2     1  ZINC000863208514    0.5100
      5 O5         -8.7281   -1.0861   65.2457 O.2     1  ZINC000863208514   -0.5400
      6 C6         -7.1483    0.4629   64.4243 C.3     1  ZINC000863208514    0.1100
      7 N7         -7.0103   -0.4840   63.3150 N.am    1  ZINC000863208514   -0.6600
      8 C8         -7.8796   -0.4475   62.2857 C.2     1  ZINC000863208514    0.5600
      9 S9         -9.1465    0.7039   62.2757 S.2     1  ZINC000863208514   -0.6000
     10 N10        -7.7517   -1.3176   61.2644 N.am    1  ZINC000863208514   -0.6300
     11 C11        -8.6551   -1.2797   60.1949 C.ar    1  ZINC000863208514    0.1200
     12 C12        -8.4102   -0.4540   59.1070 C.ar    1  ZINC000863208514   -0.0300
     13 C13        -9.3035   -0.4187   58.0520 C.ar    1  ZINC000863208514   -0.0200
     14 Cl14       -8.9971    0.6138   56.6905 Cl      1  ZINC000863208514   -0.0300
     15 C15       -10.4415   -1.2062   58.0801 C.ar    1  ZINC000863208514   -0.0600
     16 Br16      -11.6605   -1.1550   56.6353 Br      1  ZINC000863208514   -0.0100
     17 C17       -10.6887   -2.0313   59.1632 C.ar    1  ZINC000863208514   -0.1100
     18 C18        -9.7966   -2.0741   60.2186 C.ar    1  ZINC000863208514    0.1100
     19 F19       -10.0381   -2.8796   61.2759 F       1  ZINC000863208514   -0.1200
     20 H20        -7.1798    1.7293   68.1259 H       1  ZINC000863208514    0.0800
     21 H21        -6.0473    1.2024   66.8579 H       1  ZINC000863208514    0.0700
     22 H22        -7.3646    2.3317   66.4612 H       1  ZINC000863208514    0.0700
     23 H23        -9.7515    0.2490   67.8410 H       1  ZINC000863208514    0.0700
     24 H24        -8.9348   -1.3136   67.5969 H       1  ZINC000863208514    0.0800
     25 H25        -8.2864   -0.1445   68.7721 H       1  ZINC000863208514    0.0800
     26 H26        -7.6192    1.3778   64.0647 H       1  ZINC000863208514    0.1200
     27 H27        -6.1630    0.6958   64.8279 H       1  ZINC000863208514    0.1200
     28 H28        -6.2932   -1.1372   63.3213 H       1  ZINC000863208514    0.4100
     29 H29        -7.0338   -1.9700   61.2701 H       1  ZINC000863208514    0.4200
     30 H30        -7.5227    0.1610   59.0843 H       1  ZINC000863208514    0.1800
     31 H31       -11.5775   -2.6446   59.1826 H       1  ZINC000863208514    0.1600
@<TRIPOS>BOND
     1     1     2    1
     2     1    20    1
     3     1    21    1
     4     1    22    1
     5     2     3    1
     6     2     4   am
     7     3    23    1
     8     3    24    1
     9     3    25    1
    10     4     5    2
    11     4     6    1
    12     6     7    1
    13     6    26    1
    14     6    27    1
    15     7     8   am
    16     7    28    1
    17     8     9    2
    18     8    10   am
    19    10    11    1
    20    10    29    1
    21    11    18   ar
    22    11    12   ar
    23    12    13   ar
    24    12    30    1
    25    13    14    1
    26    13    15   ar
    27    15    16    1
    28    15    17   ar
    29    17    18   ar
    30    17    31    1
    31    18    19    1
@<TRIPOS>SUBSTRUCTURE
     1 ZINC000863208514        1 TEMP              0 ****  ****    0 ROOT


##########                                Name:    ZINC000028372981
##########                DOCK_Rotatable_Bonds:                   7
##########                         Heavy_Atoms:                  28
##########                    Molecular_Weight:             380.443
##########                DOCK_Rotatable_Bonds:                   7
##########                       Formal_Charge:         1.78814e-07
##########                     HBond_Acceptors:                   6
##########                        HBond_Donors:                   1
##########                         Heavy_Atoms:                  28
##########                          Grid_Score:          -28.635466
##########                     Grid_vdw_energy:          -26.081882
##########                      Grid_es_energy:           -2.553584
##########           Internal_energy_repulsive:           16.815701

@<TRIPOS>MOLECULE
ZINC000028372981
 52 54 1 0 0
SMALL
USER_CHARGES


@<TRIPOS>ATOM
      1 C1         -7.3472    1.8516   56.4217 C.3     1  ZINC000028372981   -0.1800
      2 C2         -6.5750    2.4829   55.2920 C.2     1  ZINC000028372981    0.5200
      3 O3         -7.0495    2.5147   54.1765 O.2     1  ZINC000028372981   -0.5100
      4 N4         -5.3568    3.0121   55.5215 N.am    1  ZINC000028372981   -0.5500
      5 C5         -4.6837    3.0339   56.8227 C.3     1  ZINC000028372981    0.1000
      6 C6         -3.3391    3.7352   56.5699 C.3     1  ZINC000028372981   -0.0900
      7 C7         -3.3564    4.0671   55.0943 C.ar    1  ZINC000028372981   -0.1500
      8 C8         -2.4208    4.6917   54.3005 C.ar    1  ZINC000028372981    0.0000
      9 C9         -2.6772    4.8892   52.9406 C.ar    1  ZINC000028372981   -0.1600
     10 C10        -1.6809    5.5623   52.0869 C.2     1  ZINC000028372981    0.5200
     11 O11        -1.9638    6.6039   51.5287 O.2     1  ZINC000028372981   -0.5000
     12 O12        -0.4569    5.0225   51.9258 O.3     1  ZINC000028372981   -0.3200
     13 C13        -0.3929    3.5898   51.6992 C.3     1  ZINC000028372981    0.0700
     14 H14        -1.3640    3.1441   51.9149 H       1  ZINC000028372981    0.1200
     15 C15         0.6656    2.9750   52.6172 C.3     1  ZINC000028372981   -0.1700
     16 C16        -0.0264    3.3244   50.2617 C.2     1  ZINC000028372981    0.5200
     17 O17         0.4400    4.2130   49.5808 O.2     1  ZINC000028372981   -0.4900
     18 N18        -0.2171    2.0994   49.7327 N.am    1  ZINC000028372981   -0.6600
     19 C19         0.1231    1.8530   48.3981 C.ar    1  ZINC000028372981    0.1500
     20 C20         1.4276    2.0500   47.9648 C.ar    1  ZINC000028372981   -0.1300
     21 C21         1.7603    1.8054   46.6466 C.ar    1  ZINC000028372981   -0.1000
     22 C22         0.7961    1.3644   45.7592 C.ar    1  ZINC000028372981   -0.1300
     23 C23        -0.5039    1.1668   46.1876 C.ar    1  ZINC000028372981   -0.0700
     24 C24        -1.5514    0.6856   45.2171 C.3     1  ZINC000028372981   -0.1200
     25 C25        -0.8432    1.4104   47.5039 C.ar    1  ZINC000028372981   -0.1200
     26 C26        -2.2602    1.1958   47.9697 C.3     1  ZINC000028372981   -0.1200
     27 C27        -3.8827    4.4387   52.3947 C.ar    1  ZINC000028372981   -0.0200
     28 C28        -4.8082    3.8116   53.1931 C.ar    1  ZINC000028372981   -0.1800
     29 C29        -4.5555    3.6179   54.5556 C.ar    1  ZINC000028372981    0.1900
     30 H30        -7.5250    2.5939   57.1997 H       1  ZINC000028372981    0.1000
     31 H31        -8.3018    1.4820   56.0471 H       1  ZINC000028372981    0.1000
     32 H32        -6.7734    1.0222   56.8352 H       1  ZINC000028372981    0.1000
     33 H33        -5.2744    3.5981   57.5444 H       1  ZINC000028372981    0.0900
     34 H34        -4.5188    2.0175   57.1800 H       1  ZINC000028372981    0.0900
     35 H35        -3.2675    4.6463   57.1639 H       1  ZINC000028372981    0.1000
     36 H36        -2.5111    3.0650   56.8013 H       1  ZINC000028372981    0.1000
     37 H37        -1.4904    5.0331   54.7294 H       1  ZINC000028372981    0.1400
     38 H38         1.6367    3.4207   52.4015 H       1  ZINC000028372981    0.0800
     39 H39         0.4006    3.1670   53.6569 H       1  ZINC000028372981    0.0800
     40 H40         0.7136    1.8994   52.4471 H       1  ZINC000028372981    0.0800
     41 H41        -0.5902    1.3888   50.2774 H       1  ZINC000028372981    0.4100
     42 H42         2.1821    2.3898   48.6588 H       1  ZINC000028372981    0.1400
     43 H43         2.7747    1.9584   46.3091 H       1  ZINC000028372981    0.1300
     44 H44         1.0589    1.1735   44.7291 H       1  ZINC000028372981    0.1200
     45 H45        -1.5775   -0.4041   45.2212 H       1  ZINC000028372981    0.0700
     46 H46        -2.5262    1.0735   45.5127 H       1  ZINC000028372981    0.0700
     47 H47        -1.3083    1.0393   44.2151 H       1  ZINC000028372981    0.0700
     48 H48        -2.3760    0.1703   48.3205 H       1  ZINC000028372981    0.0700
     49 H49        -2.4835    1.8856   48.7836 H       1  ZINC000028372981    0.0600
     50 H50        -2.9460    1.3763   47.1420 H       1  ZINC000028372981    0.0800
     51 H51        -4.0864    4.5835   51.3441 H       1  ZINC000028372981    0.1500
     52 H52        -5.7380    3.4659   52.7661 H       1  ZINC000028372981    0.1500
@<TRIPOS>BOND
     1     1     2    1
     2     1    30    1
     3     1    31    1
     4     1    32    1
     5     2     3    2
     6     2     4   am
     7     4    29    1
     8     4     5    1
     9     5     6    1
    10     5    33    1
    11     5    34    1
    12     6     7    1
    13     6    35    1
    14     6    36    1
    15     7    29   ar
    16     7     8   ar
    17     8     9   ar
    18     8    37    1
    19     9    10    1
    20     9    27   ar
    21    10    11    2
    22    10    12    1
    23    12    13    1
    24    13    14    1
    25    13    15    1
    26    13    16    1
    27    15    38    1
    28    15    39    1
    29    15    40    1
    30    16    17    2
    31    16    18   am
    32    18    19    1
    33    18    41    1
    34    19    25   ar
    35    19    20   ar
    36    20    21   ar
    37    20    42    1
    38    21    22   ar
    39    21    43    1
    40    22    23   ar
    41    22    44    1
    42    23    24    1
    43    23    25   ar
    44    24    45    1
    45    24    46    1
    46    24    47    1
    47    25    26    1
    48    26    48    1
    49    26    49    1
    50    26    50    1
    51    27    28   ar
    52    27    51    1
    53    28    29   ar
    54    28    52    1
@<TRIPOS>SUBSTRUCTURE
     1 ZINC000028372981        1 TEMP              0 ****  ****    0 ROOT


##########                                Name:    ZINC000942890482
##########                DOCK_Rotatable_Bonds:                   8
##########                         Heavy_Atoms:                  25
##########                    Molecular_Weight:             346.445
##########                DOCK_Rotatable_Bonds:                   8
##########                       Formal_Charge:          -0.0100004
##########                     HBond_Acceptors:                   5
##########                        HBond_Donors:                   0
##########                         Heavy_Atoms:                  25
##########                          Grid_Score:          -28.626043
##########                     Grid_vdw_energy:          -28.152275
##########                      Grid_es_energy:           -0.473768
##########           Internal_energy_repulsive:           20.296076

@<TRIPOS>MOLECULE
ZINC000942890482
 52 54 1 0 0
SMALL
USER_CHARGES


@<TRIPOS>ATOM
      1 C1         -0.3359    4.2368   44.9361 C.3     1  ZINC000942890482   -0.1700
      2 C2         -1.4315    3.3128   45.4716 C.3     1  ZINC000942890482    0.1000
      3 N3         -0.8485    2.3653   46.4248 N.am    1  ZINC000942890482   -0.6000
      4 C4         -0.2098    1.2660   45.9772 C.2     1  ZINC000942890482    0.5700
      5 O5         -0.1178    1.0608   44.7825 O.2     1  ZINC000942890482   -0.5100
      6 C6          0.3781    0.3107   46.9382 C.ar    1  ZINC000942890482   -0.1400
      7 C7         -0.3978   -0.7275   47.4579 C.ar    1  ZINC000942890482   -0.0600
      8 C8          0.1561   -1.6167   48.3540 C.ar    1  ZINC000942890482   -0.1600
      9 C9          1.4808   -1.4814   48.7396 C.ar    1  ZINC000942890482    0.1300
     10 F10         2.0188   -2.3555   49.6182 F       1  ZINC000942890482   -0.1300
     11 C11         2.2560   -0.4524   48.2263 C.ar    1  ZINC000942890482   -0.1600
     12 C12         1.7137    0.4391   47.3261 C.ar    1  ZINC000942890482   -0.0100
     13 C13         2.5573    1.5567   46.7691 C.3     1  ZINC000942890482   -0.1200
     14 C14        -0.9595    2.6127   47.8645 C.3     1  ZINC000942890482    0.1400
     15 H15        -0.2218    2.0306   48.4168 H       1  ZINC000942890482    0.1100
     16 C16        -2.3955    2.3146   48.3709 C.3     1  ZINC000942890482   -0.1500
     17 C17        -2.5210    3.2255   49.6103 C.3     1  ZINC000942890482    0.1100
     18 N18        -1.5350    4.3057   49.4597 N.am    1  ZINC000942890482   -0.6200
     19 C19        -1.3155    5.2979   50.3451 C.2     1  ZINC000942890482    0.5300
     20 O20        -0.4733    6.1400   50.1158 O.2     1  ZINC000942890482   -0.5400
     21 C21        -2.1164    5.3609   51.6202 C.3     1  ZINC000942890482   -0.1300
     22 C22        -1.3934    4.5749   52.7158 C.3     1  ZINC000942890482   -0.0700
     23 C23        -2.2077    4.6367   54.0096 C.3     1  ZINC000942890482   -0.1600
     24 C24        -2.8645    3.3423   54.4935 C.3     1  ZINC000942890482   -0.1800
     25 C25        -1.6486    3.9057   55.2319 C.3     1  ZINC000942890482   -0.1800
     26 C26        -0.8245    4.1232   48.1804 C.3     1  ZINC000942890482    0.0900
     27 H27         0.1141    4.7847   45.7640 H       1  ZINC000942890482    0.0600
     28 H28         0.4285    3.6421   44.4359 H       1  ZINC000942890482    0.0600
     29 H29        -0.7697    4.9417   44.2269 H       1  ZINC000942890482    0.0700
     30 H30        -2.1958    3.9075   45.9718 H       1  ZINC000942890482    0.0900
     31 H31        -1.8815    2.7648   44.6438 H       1  ZINC000942890482    0.0900
     32 H32        -1.4300   -0.8336   47.1583 H       1  ZINC000942890482    0.1400
     33 H33        -0.4432   -2.4198   48.7568 H       1  ZINC000942890482    0.1400
     34 H34         3.2876   -0.3516   48.5300 H       1  ZINC000942890482    0.1400
     35 H35         3.1077    1.1978   45.8994 H       1  ZINC000942890482    0.0900
     36 H36         1.9137    2.3858   46.4750 H       1  ZINC000942890482    0.0700
     37 H37         3.2607    1.8950   47.5301 H       1  ZINC000942890482    0.0700
     38 H38        -3.1343    2.5856   47.6167 H       1  ZINC000942890482    0.1000
     39 H39        -2.4957    1.2661   48.6512 H       1  ZINC000942890482    0.0900
     40 H40        -3.5256    3.6452   49.6619 H       1  ZINC000942890482    0.0700
     41 H41        -2.3091    2.6536   50.5137 H       1  ZINC000942890482    0.0700
     42 H42        -2.2249    6.4003   51.9300 H       1  ZINC000942890482    0.0900
     43 H43        -3.1021    4.9271   51.4519 H       1  ZINC000942890482    0.0900
     44 H44        -1.2833    3.5359   52.4051 H       1  ZINC000942890482    0.0700
     45 H45        -0.4085    5.0099   52.8853 H       1  ZINC000942890482    0.0700
     46 H46        -2.7448    5.5693   54.1829 H       1  ZINC000942890482    0.1000
     47 H47        -3.8338    3.4231   54.9853 H       1  ZINC000942890482    0.0900
     48 H48        -2.7163    2.4467   53.8902 H       1  ZINC000942890482    0.0900
     49 H49        -0.7006    3.3808   55.1143 H       1  ZINC000942890482    0.0900
     50 H50        -1.8181    4.3572   56.2094 H       1  ZINC000942890482    0.0900
     51 H51         0.2250    4.3974   48.2868 H       1  ZINC000942890482    0.0800
     52 H52        -1.2951    4.7173   47.3970 H       1  ZINC000942890482    0.0900
@<TRIPOS>BOND
     1     1     2    1
     2     1    27    1
     3     1    28    1
     4     1    29    1
     5     2     3    1
     6     2    30    1
     7     2    31    1
     8     3     4   am
     9     3    14    1
    10     4     5    2
    11     4     6    1
    12     6    12   ar
    13     6     7   ar
    14     7     8   ar
    15     7    32    1
    16     8     9   ar
    17     8    33    1
    18     9    10    1
    19     9    11   ar
    20    11    12   ar
    21    11    34    1
    22    12    13    1
    23    13    35    1
    24    13    36    1
    25    13    37    1
    26    14    15    1
    27    14    26    1
    28    14    16    1
    29    16    17    1
    30    16    38    1
    31    16    39    1
    32    17    18    1
    33    17    40    1
    34    17    41    1
    35    18    19   am
    36    18    26    1
    37    19    20    2
    38    19    21    1
    39    21    22    1
    40    21    42    1
    41    21    43    1
    42    22    23    1
    43    22    44    1
    44    22    45    1
    45    23    25    1
    46    23    24    1
    47    23    46    1
    48    24    25    1
    49    24    47    1
    50    24    48    1
    51    25    49    1
    52    25    50    1
    53    26    51    1
    54    26    52    1
@<TRIPOS>SUBSTRUCTURE
     1 ZINC000942890482        1 TEMP              0 ****  ****    0 ROOT


##########                                Name:    ZINC000464752079
##########                DOCK_Rotatable_Bonds:                   7
##########                         Heavy_Atoms:                  29
##########                    Molecular_Weight:             404.413
##########                DOCK_Rotatable_Bonds:                   7
##########                       Formal_Charge:         7.45058e-08
##########                     HBond_Acceptors:                   8
##########                        HBond_Donors:                   1
##########                         Heavy_Atoms:                  29
##########                          Grid_Score:          -28.604681
##########                     Grid_vdw_energy:          -28.233517
##########                      Grid_es_energy:           -0.371165
##########           Internal_energy_repulsive:           18.443945

@<TRIPOS>MOLECULE
ZINC000464752079
 51 54 1 0 0
SMALL
USER_CHARGES


@<TRIPOS>ATOM
      1 C1          0.7975    2.6916   54.9549 C.3     1  ZINC000464752079   -0.1200
      2 C2          0.2130    4.0657   54.7512 C.ar    1  ZINC000464752079   -0.0800
      3 C3          1.0454    5.1665   54.6767 C.ar    1  ZINC000464752079   -0.1200
      4 C4          0.5092    6.4272   54.4899 C.ar    1  ZINC000464752079   -0.1200
      5 C5         -0.8591    6.5865   54.3773 C.ar    1  ZINC000464752079   -0.1300
      6 C6         -1.6916    5.4851   54.4509 C.ar    1  ZINC000464752079   -0.0900
      7 C7         -1.1553    4.2244   54.6334 C.ar    1  ZINC000464752079   -0.0800
      8 C8         -2.0628    3.0239   54.7137 C.3     1  ZINC000464752079    0.2000
      9 H9         -1.5524    2.1464   54.3168 H       1  ZINC000464752079    0.0900
     10 C10        -2.4736    2.7737   56.1800 C.3     1  ZINC000464752079   -0.1200
     11 C11        -3.9582    2.3400   56.0558 C.3     1  ZINC000464752079   -0.1300
     12 C12        -4.4418    3.2207   54.8768 C.3     1  ZINC000464752079    0.1000
     13 N13        -3.2932    3.2752   53.9490 N.am    1  ZINC000464752079   -0.6300
     14 C14        -3.3635    3.5179   52.6252 C.2     1  ZINC000464752079    0.7200
     15 O15        -4.4420    3.7167   52.1001 O.2     1  ZINC000464752079   -0.5700
     16 N16        -2.2385    3.5402   51.8835 N.am    1  ZINC000464752079   -0.7400
     17 C17        -2.3148    3.8058   50.4448 C.3     1  ZINC000464752079    0.1900
     18 C18        -1.5357    2.7541   49.6978 C.ar    1  ZINC000464752079   -0.1200
     19 C19        -2.1302    1.5458   49.3866 C.ar    1  ZINC000464752079   -0.0500
     20 C20        -1.4166    0.5768   48.7005 C.ar    1  ZINC000464752079    0.0100
     21 C21        -0.0985    0.8212   48.3238 C.ar    1  ZINC000464752079    0.0800
     22 C22         0.4949    2.0335   48.6357 C.ar    1  ZINC000464752079   -0.1800
     23 C23        -0.2248    3.0020   49.3186 C.ar    1  ZINC000464752079    0.1400
     24 O24         0.3577    4.1921   49.6245 O.3     1  ZINC000464752079   -0.3100
     25 C25         1.5280    4.1500   50.4434 C.3     1  ZINC000464752079    0.4100
     26 F26         2.0728    5.4346   50.5445 F       1  ZINC000464752079   -0.2000
     27 F27         1.1885    3.6857   51.7186 F       1  ZINC000464752079   -0.2000
     28 O28         0.3788   -0.2767   47.6679 O.3     1  ZINC000464752079   -0.3000
     29 C29        -0.5223   -1.3480   48.0047 C.3     1  ZINC000464752079    0.2100
     30 O30        -1.7653   -0.6754   48.2803 O.3     1  ZINC000464752079   -0.3000
     31 H31         1.0122    2.2408   53.9860 H       1  ZINC000464752079    0.0700
     32 H32         1.7193    2.7705   55.5311 H       1  ZINC000464752079    0.0700
     33 H33         0.0836    2.0695   55.4949 H       1  ZINC000464752079    0.0700
     34 H34         2.1146    5.0420   54.7647 H       1  ZINC000464752079    0.1200
     35 H35         1.1596    7.2874   54.4323 H       1  ZINC000464752079    0.1200
     36 H36        -1.2780    7.5713   54.2320 H       1  ZINC000464752079    0.1200
     37 H37        -2.7608    5.6096   54.3633 H       1  ZINC000464752079    0.1100
     38 H38        -1.8740    1.9755   56.6177 H       1  ZINC000464752079    0.0900
     39 H39        -2.3869    3.6885   56.7663 H       1  ZINC000464752079    0.0800
     40 H40        -4.0366    1.2810   55.8103 H       1  ZINC000464752079    0.0800
     41 H41        -4.5100    2.5701   56.9673 H       1  ZINC000464752079    0.0900
     42 H42        -5.3011    2.7616   54.3879 H       1  ZINC000464752079    0.0700
     43 H43        -4.6943    4.2209   55.2290 H       1  ZINC000464752079    0.0700
     44 H44        -1.3782    3.3806   52.3023 H       1  ZINC000464752079    0.4000
     45 H45        -3.3568    3.7812   50.1256 H       1  ZINC000464752079    0.0800
     46 H46        -1.8932    4.7886   50.2338 H       1  ZINC000464752079    0.0800
     47 H47        -3.1525    1.3566   49.6791 H       1  ZINC000464752079    0.1500
     48 H48         1.5171    2.2252   48.3444 H       1  ZINC000464752079    0.1500
     49 H49         2.2608    3.4787   49.9955 H       1  ZINC000464752079    0.1900
     50 H50        -0.6353   -2.0322   47.1637 H       1  ZINC000464752079    0.1400
     51 H51        -0.1709   -1.8806   48.8884 H       1  ZINC000464752079    0.0900
@<TRIPOS>BOND
     1     1     2    1
     2     1    31    1
     3     1    32    1
     4     1    33    1
     5     2     7   ar
     6     2     3   ar
     7     3     4   ar
     8     3    34    1
     9     4     5   ar
    10     4    35    1
    11     5     6   ar
    12     5    36    1
    13     6     7   ar
    14     6    37    1
    15     7     8    1
    16     8     9    1
    17     8    13    1
    18     8    10    1
    19    10    11    1
    20    10    38    1
    21    10    39    1
    22    11    12    1
    23    11    40    1
    24    11    41    1
    25    12    13    1
    26    12    42    1
    27    12    43    1
    28    13    14   am
    29    14    15    2
    30    14    16   am
    31    16    17    1
    32    16    44    1
    33    17    18    1
    34    17    45    1
    35    17    46    1
    36    18    23   ar
    37    18    19   ar
    38    19    20   ar
    39    19    47    1
    40    20    30    1
    41    20    21   ar
    42    21    22   ar
    43    21    28    1
    44    22    23   ar
    45    22    48    1
    46    23    24    1
    47    24    25    1
    48    25    26    1
    49    25    27    1
    50    25    49    1
    51    28    29    1
    52    29    30    1
    53    29    50    1
    54    29    51    1
@<TRIPOS>SUBSTRUCTURE
     1 ZINC000464752079        1 TEMP              0 ****  ****    0 ROOT


##########                                Name:    ZINC000647468483
##########                DOCK_Rotatable_Bonds:                   5
##########                         Heavy_Atoms:                  24
##########                    Molecular_Weight:             341.373
##########                DOCK_Rotatable_Bonds:                   5
##########                       Formal_Charge:           0.0300004
##########                     HBond_Acceptors:                   6
##########                        HBond_Donors:                   2
##########                         Heavy_Atoms:                  24
##########                          Grid_Score:          -28.577297
##########                     Grid_vdw_energy:          -24.767382
##########                      Grid_es_energy:           -3.809916
##########           Internal_energy_repulsive:           19.126513

@<TRIPOS>MOLECULE
ZINC000647468483
 46 48 1 0 0
SMALL
USER_CHARGES


@<TRIPOS>ATOM
      1 O1         -0.8208   -0.9231   46.2436 O.co2   1  ZINC000647468483   -0.6800
      2 C2         -0.8125   -0.4560   47.3697 C.2     1  ZINC000647468483    0.5000
      3 O3         -0.2490   -1.0511   48.2724 O.co2   1  ZINC000647468483   -0.6900
      4 C4         -1.4934    0.8601   47.6447 C.3     1  ZINC000647468483   -0.1500
      5 H5         -2.3772    0.9745   47.0171 H       1  ZINC000647468483    0.0800
      6 C6         -0.5129    2.0402   47.4325 C.3     1  ZINC000647468483   -0.1100
      7 C7         -1.0968    3.1770   48.2965 C.3     1  ZINC000647468483   -0.1400
      8 C8         -1.9533    2.5065   49.3849 C.3     1  ZINC000647468483    0.0100
      9 H9         -2.9891    2.8351   49.3001 H       1  ZINC000647468483    0.1400
     10 N10        -1.4274    2.8397   50.7154 N.4     1  ZINC000647468483   -0.5000
     11 H11        -1.6410    2.0920   51.3584 H       1  ZINC000647468483    0.4200
     12 H12        -0.4272    2.9612   50.6610 H       1  ZINC000647468483    0.4300
     13 C13        -2.0468    4.0847   51.1890 C.3     1  ZINC000647468483    0.0200
     14 H14        -1.9538    4.8604   50.4290 H       1  ZINC000647468483    0.1500
     15 C15        -3.5306    3.8436   51.5173 C.3     1  ZINC000647468483   -0.1400
     16 C16        -3.7085    4.1649   53.0155 C.3     1  ZINC000647468483   -0.1300
     17 C17        -2.2916    3.9820   53.6141 C.3     1  ZINC000647468483   -0.1300
     18 C18        -1.3738    4.5447   52.4987 C.3     1  ZINC000647468483   -0.0600
     19 H19        -1.3372    5.6331   52.5477 H       1  ZINC000647468483    0.1300
     20 C20         0.0129    3.9660   52.6147 C.ar    1  ZINC000647468483   -0.1200
     21 C21         0.9044    4.0923   51.5662 C.ar    1  ZINC000647468483   -0.0700
     22 C22         2.1765    3.5613   51.6726 C.ar    1  ZINC000647468483   -0.1000
     23 C23         2.5567    2.9045   52.8278 C.ar    1  ZINC000647468483   -0.0600
     24 C24         1.6651    2.7789   53.8769 C.ar    1  ZINC000647468483   -0.1600
     25 C25         2.0797    2.0623   55.1363 C.3     1  ZINC000647468483    0.5000
     26 F26         0.9860    1.9742   56.0041 F       1  ZINC000647468483   -0.1700
     27 F27         2.5255    0.7756   54.8155 F       1  ZINC000647468483   -0.1700
     28 F28         3.1125    2.7721   55.7582 F       1  ZINC000647468483   -0.1700
     29 C29         0.3949    3.3134   53.7722 C.ar    1  ZINC000647468483   -0.1100
     30 C30        -1.8645    0.9835   49.1433 C.3     1  ZINC000647468483   -0.1200
     31 H31         0.4859    1.7732   47.7777 H       1  ZINC000647468483    0.0800
     32 H32        -0.4893    2.3325   46.3827 H       1  ZINC000647468483    0.0800
     33 H33        -0.2904    3.7490   48.7555 H       1  ZINC000647468483    0.0700
     34 H34        -1.7170    3.8311   47.6835 H       1  ZINC000647468483    0.1000
     35 H35        -4.1577    4.5029   50.9170 H       1  ZINC000647468483    0.1000
     36 H36        -3.7912    2.8027   51.3251 H       1  ZINC000647468483    0.0900
     37 H37        -4.0488    5.1919   53.1478 H       1  ZINC000647468483    0.0800
     38 H38        -4.4093    3.4676   53.4747 H       1  ZINC000647468483    0.0900
     39 H39        -2.1824    4.5596   54.5319 H       1  ZINC000647468483    0.0900
     40 H40        -2.0808    2.9275   53.7925 H       1  ZINC000647468483    0.0800
     41 H41         0.6072    4.6056   50.6636 H       1  ZINC000647468483    0.1400
     42 H42         2.8728    3.6594   50.8530 H       1  ZINC000647468483    0.1500
     43 H43         3.5501    2.4890   52.9106 H       1  ZINC000647468483    0.1500
     44 H44        -0.3016    3.2153   54.5918 H       1  ZINC000647468483    0.1400
     45 H45        -2.8250    0.5088   49.3438 H       1  ZINC000647468483    0.0900
     46 H46        -1.0837    0.5436   49.7639 H       1  ZINC000647468483    0.1000
@<TRIPOS>BOND
     1     1     2   ar
     2     2     3   ar
     3     2     4    1
     4     4     5    1
     5     4    30    1
     6     4     6    1
     7     6     7    1
     8     6    31    1
     9     6    32    1
    10     7     8    1
    11     7    33    1
    12     7    34    1
    13     8     9    1
    14     8    10    1
    15     8    30    1
    16    10    11    1
    17    10    12    1
    18    10    13    1
    19    13    14    1
    20    13    18    1
    21    13    15    1
    22    15    16    1
    23    15    35    1
    24    15    36    1
    25    16    17    1
    26    16    37    1
    27    16    38    1
    28    17    18    1
    29    17    39    1
    30    17    40    1
    31    18    19    1
    32    18    20    1
    33    20    29   ar
    34    20    21   ar
    35    21    22   ar
    36    21    41    1
    37    22    23   ar
    38    22    42    1
    39    23    24   ar
    40    23    43    1
    41    24    25    1
    42    24    29   ar
    43    25    26    1
    44    25    27    1
    45    25    28    1
    46    29    44    1
    47    30    45    1
    48    30    46    1
@<TRIPOS>SUBSTRUCTURE
     1 ZINC000647468483        1 TEMP              0 ****  ****    0 ROOT


##########                                Name:    ZINC000337709254
##########                DOCK_Rotatable_Bonds:                   7
##########                         Heavy_Atoms:                  22
##########                    Molecular_Weight:              329.42
##########                DOCK_Rotatable_Bonds:                   7
##########                       Formal_Charge:           0.0300004
##########                     HBond_Acceptors:                   8
##########                        HBond_Donors:                   2
##########                         Heavy_Atoms:                  22
##########                          Grid_Score:          -28.567917
##########                     Grid_vdw_energy:          -26.766073
##########                      Grid_es_energy:           -1.801843
##########           Internal_energy_repulsive:            9.516829

@<TRIPOS>MOLECULE
ZINC000337709254
 45 46 1 0 0
SMALL
USER_CHARGES


@<TRIPOS>ATOM
      1 C1        -10.7829    0.9612   52.4052 C.3     1  ZINC000337709254   -0.6700
      2 S2         -9.4357   -0.2481   52.5203 S.o2    1  ZINC000337709254    2.6100
      3 O3         -9.9405   -1.5704   52.3937 O.2     1  ZINC000337709254   -0.9500
      4 O4         -8.3127    0.1830   51.7637 O.2     1  ZINC000337709254   -0.9500
      5 N5         -8.9287   -0.1534   54.0939 N.am    1  ZINC000337709254   -1.1200
      6 C6         -9.8638   -0.4442   55.1835 C.3     1  ZINC000337709254    0.1200
      7 C7         -9.4481    0.3340   56.4336 C.3     1  ZINC000337709254   -0.1100
      8 H8         -8.3617    0.3691   56.5162 H       1  ZINC000337709254    0.1100
      9 C9        -10.0359    1.7666   56.4008 C.3     1  ZINC000337709254   -0.1200
     10 C10       -10.0572    2.1616   57.8983 C.3     1  ZINC000337709254   -0.1200
     11 C11       -10.4555    0.8614   58.6269 C.3     1  ZINC000337709254   -0.1400
     12 C12       -10.0653   -0.3027   57.6959 C.3     1  ZINC000337709254    0.1500
     13 H13        -9.3363   -0.9463   58.1884 H       1  ZINC000337709254    0.1000
     14 N14       -11.2552   -1.0773   57.3353 N.am    1  ZINC000337709254   -0.7200
     15 C15       -11.7554   -1.9847   58.1970 C.2     1  ZINC000337709254    0.5300
     16 O16       -11.2196   -2.1611   59.2707 O.2     1  ZINC000337709254   -0.5100
     17 C17       -12.9806   -2.7802   57.8268 C.3     1  ZINC000337709254    0.0200
     18 C18       -13.6684   -2.1292   56.6999 C.1     1  ZINC000337709254    0.2000
     19 N19       -14.1993   -1.6268   55.8303 N.1     1  ZINC000337709254   -0.3900
     20 C20       -12.5680   -4.2000   57.4264 C.3     1  ZINC000337709254   -0.1500
     21 C21       -13.8239   -5.0231   57.1281 C.3     1  ZINC000337709254    0.0600
     22 O22       -14.6737   -5.0265   58.2771 O.3     1  ZINC000337709254   -0.3700
     23 C23       -15.1294   -3.7302   58.6696 C.3     1  ZINC000337709254    0.0600
     24 C24       -13.9259   -2.8551   59.0298 C.3     1  ZINC000337709254   -0.1300
     25 H25       -11.5742    0.6913   53.1046 H       1  ZINC000337709254    0.1300
     26 H26       -10.4030    1.9528   52.6514 H       1  ZINC000337709254    0.1300
     27 H27       -11.1810    0.9663   51.3905 H       1  ZINC000337709254    0.1300
     28 H28        -8.0126    0.0946   54.2942 H       1  ZINC000337709254    0.4200
     29 H29       -10.8699   -0.1464   54.8881 H       1  ZINC000337709254    0.0600
     30 H30        -9.8496   -1.5125   55.3991 H       1  ZINC000337709254    0.0900
     31 H31        -9.3894    2.4364   55.8338 H       1  ZINC000337709254    0.0800
     32 H32       -11.0449    1.7608   55.9884 H       1  ZINC000337709254    0.0700
     33 H33        -9.0695    2.4920   58.2198 H       1  ZINC000337709254    0.0700
     34 H34       -10.7979    2.9411   58.0767 H       1  ZINC000337709254    0.0700
     35 H35        -9.9141    0.7808   59.5695 H       1  ZINC000337709254    0.0800
     36 H36       -11.5297    0.8505   58.8106 H       1  ZINC000337709254    0.0700
     37 H37       -11.6831   -0.9371   56.4760 H       1  ZINC000337709254    0.4000
     38 H38       -11.9393   -4.1594   56.5369 H       1  ZINC000337709254    0.0900
     39 H39       -12.0149   -4.6627   58.2437 H       1  ZINC000337709254    0.1100
     40 H40       -14.3553   -4.5827   56.2844 H       1  ZINC000337709254    0.0500
     41 H41       -13.5385   -6.0464   56.8841 H       1  ZINC000337709254    0.1100
     42 H42       -15.6778   -3.2729   57.8460 H       1  ZINC000337709254    0.0500
     43 H43       -15.7843   -3.8220   59.5360 H       1  ZINC000337709254    0.1100
     44 H44       -13.4002   -3.2907   59.8795 H       1  ZINC000337709254    0.1100
     45 H45       -14.2683   -1.8528   59.2869 H       1  ZINC000337709254    0.0900
@<TRIPOS>BOND
     1     1     2    1
     2     1    25    1
     3     1    26    1
     4     1    27    1
     5     2     3    2
     6     2     4    2
     7     2     5   am
     8     5     6    1
     9     5    28    1
    10     6     7    1
    11     6    29    1
    12     6    30    1
    13     7     8    1
    14     7    12    1
    15     7     9    1
    16     9    10    1
    17     9    31    1
    18     9    32    1
    19    10    11    1
    20    10    33    1
    21    10    34    1
    22    11    12    1
    23    11    35    1
    24    11    36    1
    25    12    13    1
    26    12    14    1
    27    14    15   am
    28    14    37    1
    29    15    16    2
    30    15    17    1
    31    17    24    1
    32    17    18    1
    33    17    20    1
    34    18    19    3
    35    20    21    1
    36    20    38    1
    37    20    39    1
    38    21    22    1
    39    21    40    1
    40    21    41    1
    41    22    23    1
    42    23    24    1
    43    23    42    1
    44    23    43    1
    45    24    44    1
    46    24    45    1
@<TRIPOS>SUBSTRUCTURE
     1 ZINC000337709254        1 TEMP              0 ****  ****    0 ROOT


##########                                Name:    ZINC000866717058
##########                DOCK_Rotatable_Bonds:                   7
##########                         Heavy_Atoms:                  25
##########                    Molecular_Weight:             380.388
##########                DOCK_Rotatable_Bonds:                   7
##########                       Formal_Charge:                0.04
##########                     HBond_Acceptors:                  10
##########                        HBond_Donors:                   1
##########                         Heavy_Atoms:                  25
##########                          Grid_Score:          -28.562834
##########                     Grid_vdw_energy:          -27.955944
##########                      Grid_es_energy:           -0.606889
##########           Internal_energy_repulsive:           18.060289

@<TRIPOS>MOLECULE
ZINC000866717058
 44 45 1 0 0
SMALL
USER_CHARGES


@<TRIPOS>ATOM
      1 C1         -1.6858    5.5815   48.9171 C.3     1  ZINC000866717058   -0.1100
      2 C2         -2.1995    4.1749   49.0858 C.ar    1  ZINC000866717058    0.2400
      3 N3         -2.0585    3.3074   48.1058 N.ar    1  ZINC000866717058   -0.5500
      4 C4         -2.4941    2.0610   48.2090 C.ar    1  ZINC000866717058    0.3500
      5 O5         -2.3244    1.2062   47.1714 O.3     1  ZINC000866717058   -0.2800
      6 C6         -0.9843    0.8151   46.8658 C.3     1  ZINC000866717058    0.0500
      7 H7         -0.2927    1.5784   47.2223 H       1  ZINC000866717058    0.1300
      8 C8         -0.6726   -0.5163   47.5523 C.3     1  ZINC000866717058   -0.1700
      9 C9         -0.8322    0.6561   45.3518 C.3     1  ZINC000866717058    0.4600
     10 F10         0.5087    0.8372   44.9962 F       1  ZINC000866717058   -0.1700
     11 F11        -1.2460   -0.6256   44.9735 F       1  ZINC000866717058   -0.1700
     12 F12        -1.6203    1.6116   44.7010 F       1  ZINC000866717058   -0.1700
     13 C13        -3.1232    1.6165   49.3676 C.ar    1  ZINC000866717058   -0.1900
     14 C14        -3.2929    2.4914   50.4212 C.ar    1  ZINC000866717058    0.0000
     15 C15        -2.8151    3.8026   50.2817 C.ar    1  ZINC000866717058   -0.2300
     16 C16        -2.9711    4.7775   51.3791 C.2     1  ZINC000866717058    0.5800
     17 O17        -3.8852    5.5788   51.3551 O.2     1  ZINC000866717058   -0.5200
     18 N18        -2.1002    4.7793   52.4078 N.am    1  ZINC000866717058   -0.7400
     19 C19        -2.2541    5.7480   53.4961 C.3     1  ZINC000866717058    0.1400
     20 C20        -2.7246    5.0248   54.7596 C.3     1  ZINC000866717058   -0.5700
     21 H21        -3.1342    5.7335   55.4794 H       1  ZINC000866717058    0.1500
     22 C22        -3.7662    3.9302   54.4115 C.3     1  ZINC000866717058   -0.1100
     23 C23        -3.8058    2.9637   55.6082 C.3     1  ZINC000866717058   -0.1200
     24 C24        -2.3590    2.6079   56.0044 C.3     1  ZINC000866717058   -0.5900
     25 S25        -1.3565    4.0588   55.5040 S.o2    1  ZINC000866717058    2.3700
     26 O26        -0.4468    3.6730   54.4828 O.2     1  ZINC000866717058   -0.9200
     27 O27        -0.8795    4.7246   56.6652 O.2     1  ZINC000866717058   -0.9300
     28 H28        -0.6961    5.6632   49.3663 H       1  ZINC000866717058    0.0900
     29 H29        -1.6239    5.8208   47.8555 H       1  ZINC000866717058    0.0700
     30 H30        -2.3659    6.2780   49.4076 H       1  ZINC000866717058    0.1100
     31 H31         0.3496   -0.8147   47.3191 H       1  ZINC000866717058    0.0900
     32 H32        -0.7809   -0.4031   48.6309 H       1  ZINC000866717058    0.0900
     33 H33        -1.3641   -1.2796   47.1957 H       1  ZINC000866717058    0.0800
     34 H34        -3.4751    0.5981   49.4416 H       1  ZINC000866717058    0.1600
     35 H35        -3.7780    2.1732   51.3321 H       1  ZINC000866717058    0.1500
     36 H36        -1.3716    4.1392   52.4276 H       1  ZINC000866717058    0.4000
     37 H37        -1.2968    6.2320   53.6897 H       1  ZINC000866717058    0.1000
     38 H38        -2.9904    6.4997   53.2121 H       1  ZINC000866717058    0.1000
     39 H39        -4.7472    4.3818   54.2638 H       1  ZINC000866717058    0.1100
     40 H40        -3.4609    3.3972   53.5112 H       1  ZINC000866717058    0.0900
     41 H41        -4.3088    3.4416   56.4488 H       1  ZINC000866717058    0.0900
     42 H42        -4.3429    2.0571   55.3296 H       1  ZINC000866717058    0.1000
     43 H43        -2.2880    2.4552   57.0813 H       1  ZINC000866717058    0.1400
     44 H44        -2.0294    1.7156   55.4722 H       1  ZINC000866717058    0.1400
@<TRIPOS>BOND
     1     1     2    1
     2     1    28    1
     3     1    29    1
     4     1    30    1
     5     2    15   ar
     6     2     3   ar
     7     3     4   ar
     8     4     5    1
     9     4    13   ar
    10     5     6    1
    11     6     7    1
    12     6     8    1
    13     6     9    1
    14     8    31    1
    15     8    32    1
    16     8    33    1
    17     9    10    1
    18     9    11    1
    19     9    12    1
    20    13    14   ar
    21    13    34    1
    22    14    15   ar
    23    14    35    1
    24    15    16    1
    25    16    17    2
    26    16    18   am
    27    18    19    1
    28    18    36    1
    29    19    20    1
    30    19    37    1
    31    19    38    1
    32    20    21    1
    33    20    25    1
    34    20    22    1
    35    22    23    1
    36    22    39    1
    37    22    40    1
    38    23    24    1
    39    23    41    1
    40    23    42    1
    41    24    25    1
    42    24    43    1
    43    24    44    1
    44    25    26    2
    45    25    27    2
@<TRIPOS>SUBSTRUCTURE
     1 ZINC000866717058        1 TEMP              0 ****  ****    0 ROOT


##########                                Name:    ZINC000790735374
##########                DOCK_Rotatable_Bonds:                   5
##########                         Heavy_Atoms:                  25
##########                    Molecular_Weight:             353.445
##########                DOCK_Rotatable_Bonds:                   5
##########                       Formal_Charge:                   0
##########                     HBond_Acceptors:                   6
##########                        HBond_Donors:                   1
##########                         Heavy_Atoms:                  25
##########                          Grid_Score:          -28.543026
##########                     Grid_vdw_energy:          -27.936460
##########                      Grid_es_energy:           -0.606565
##########           Internal_energy_repulsive:            9.099508

@<TRIPOS>MOLECULE
ZINC000790735374
 44 47 1 0 0
SMALL
USER_CHARGES


@<TRIPOS>ATOM
      1 O1         -2.4556    1.9398   46.9381 O.2     1  ZINC000790735374   -0.5100
      2 C2         -1.8156    1.1573   47.6083 C.2     1  ZINC000790735374    0.5000
      3 N3         -1.0305    0.2410   47.0080 N.am    1  ZINC000790735374   -0.7200
      4 C4         -0.9549    0.1861   45.5460 C.3     1  ZINC000790735374    0.1400
      5 C5          0.0706    1.2072   45.0495 C.3     1  ZINC000790735374   -0.0300
      6 H6         -0.4219    2.1675   44.8967 H       1  ZINC000790735374    0.1100
      7 S7          1.3790    1.3951   46.2907 S.3     1  ZINC000790735374   -0.2400
      8 C8          2.6416    2.2839   45.3262 C.3     1  ZINC000790735374   -0.0800
      9 C9          3.0971    1.3659   44.2016 C.3     1  ZINC000790735374   -0.0800
     10 C10         1.9672    0.8277   43.3707 C.ar    1  ZINC000790735374   -0.0700
     11 C11         2.3432    0.3848   42.0981 C.ar    1  ZINC000790735374   -0.1200
     12 C12         1.4270   -0.1498   41.2232 C.ar    1  ZINC000790735374   -0.1100
     13 C13         0.1027   -0.2570   41.6054 C.ar    1  ZINC000790735374   -0.1200
     14 C14        -0.2750    0.1823   42.8537 C.ar    1  ZINC000790735374   -0.1100
     15 C15         0.6548    0.7324   43.7421 C.ar    1  ZINC000790735374   -0.0800
     16 C16        -1.8933    1.2138   49.1122 C.3     1  ZINC000790735374    0.0300
     17 H17        -1.6824    0.2375   49.5487 H       1  ZINC000790735374    0.1500
     18 C18        -0.9365    2.2910   49.6762 C.3     1  ZINC000790735374   -0.1400
     19 C19        -1.8396    3.5039   49.7963 C.2     1  ZINC000790735374    0.1200
     20 C20        -1.3940    4.8995   49.9795 C.ar    1  ZINC000790735374   -0.1000
     21 C21        -2.3280    5.9371   50.0843 C.ar    1  ZINC000790735374   -0.0400
     22 C22        -1.8582    7.2276   50.2556 C.ar    1  ZINC000790735374   -0.1700
     23 C23        -0.4944    7.4490   50.3172 C.ar    1  ZINC000790735374    0.1200
     24 N24         0.3632    6.4516   50.2154 N.ar    1  ZINC000790735374   -0.4800
     25 C25        -0.0341    5.2062   50.0569 C.ar    1  ZINC000790735374    0.1400
     26 N26        -3.0646    3.1061   49.7108 N.2     1  ZINC000790735374   -0.2700
     27 O27        -3.1781    1.7057   49.5445 O.3     1  ZINC000790735374   -0.1600
     28 H28        -0.5155   -0.3823   47.5439 H       1  ZINC000790735374    0.4100
     29 H29        -0.6519   -0.8138   45.2352 H       1  ZINC000790735374    0.0800
     30 H30        -1.9324    0.4175   45.1227 H       1  ZINC000790735374    0.0900
     31 H31         2.2137    3.1953   44.9086 H       1  ZINC000790735374    0.0900
     32 H32         3.4884    2.5321   45.9662 H       1  ZINC000790735374    0.1100
     33 H33         3.7748    1.9198   43.5520 H       1  ZINC000790735374    0.0900
     34 H34         3.6417    0.5271   44.6351 H       1  ZINC000790735374    0.0900
     35 H35         3.3770    0.4648   41.7957 H       1  ZINC000790735374    0.1200
     36 H36         1.7395   -0.4831   40.2446 H       1  ZINC000790735374    0.1300
     37 H37        -0.6274   -0.6806   40.9316 H       1  ZINC000790735374    0.1300
     38 H38        -1.3090    0.0982   43.1536 H       1  ZINC000790735374    0.1300
     39 H39        -0.5537    1.9954   50.6531 H       1  ZINC000790735374    0.1200
     40 H40        -0.1190    2.4845   48.9816 H       1  ZINC000790735374    0.1100
     41 H41        -3.3878    5.7358   50.0325 H       1  ZINC000790735374    0.1500
     42 H42        -2.5494    8.0531   50.3400 H       1  ZINC000790735374    0.1500
     43 H43        -0.1253    8.4553   50.4504 H       1  ZINC000790735374    0.1600
     44 H44         0.6982    4.4164   49.9778 H       1  ZINC000790735374    0.1600
@<TRIPOS>BOND
     1     1     2    2
     2     2     3   am
     3     2    16    1
     4     3     4    1
     5     3    28    1
     6     4     5    1
     7     4    29    1
     8     4    30    1
     9     5     6    1
    10     5    15    1
    11     5     7    1
    12     7     8    1
    13     8     9    1
    14     8    31    1
    15     8    32    1
    16     9    10    1
    17     9    33    1
    18     9    34    1
    19    10    15   ar
    20    10    11   ar
    21    11    12   ar
    22    11    35    1
    23    12    13   ar
    24    12    36    1
    25    13    14   ar
    26    13    37    1
    27    14    15   ar
    28    14    38    1
    29    16    17    1
    30    16    27    1
    31    16    18    1
    32    18    19    1
    33    18    39    1
    34    18    40    1
    35    19    20    1
    36    19    26    2
    37    20    25   ar
    38    20    21   ar
    39    21    22   ar
    40    21    41    1
    41    22    23   ar
    42    22    42    1
    43    23    24   ar
    44    23    43    1
    45    24    25   ar
    46    25    44    1
    47    26    27    1
@<TRIPOS>SUBSTRUCTURE
     1 ZINC000790735374        1 TEMP              0 ****  ****    0 ROOT


##########                                Name:    ZINC000817655807
##########                DOCK_Rotatable_Bonds:                   3
##########                         Heavy_Atoms:                  24
##########                    Molecular_Weight:             352.774
##########                DOCK_Rotatable_Bonds:                   3
##########                       Formal_Charge:         3.35276e-07
##########                     HBond_Acceptors:                   8
##########                        HBond_Donors:                   0
##########                         Heavy_Atoms:                  24
##########                          Grid_Score:          -28.532465
##########                     Grid_vdw_energy:          -29.206770
##########                      Grid_es_energy:            0.674305
##########           Internal_energy_repulsive:            2.653764

@<TRIPOS>MOLECULE
ZINC000817655807
 41 44 1 0 0
SMALL
USER_CHARGES


@<TRIPOS>ATOM
      1 C1          1.2004    4.1161   51.2052 C.3     1  ZINC000817655807    0.1100
      2 N2          0.0050    3.5187   50.6049 N.am    1  ZINC000817655807   -0.6400
      3 C3         -0.0244    2.7165   49.3687 C.3     1  ZINC000817655807    0.1000
      4 C4         -1.5053    2.3572   49.2176 C.3     1  ZINC000817655807    0.0500
      5 C5         -2.1198    2.6330   47.8451 C.3     1  ZINC000817655807    0.1200
      6 N6         -1.8031    1.2219   47.5409 N.am    1  ZINC000817655807   -0.6500
      7 C7         -1.5923    0.5264   46.4059 C.2     1  ZINC000817655807    0.5500
      8 O8         -1.3448   -0.6597   46.4586 O.2     1  ZINC000817655807   -0.5100
      9 C9         -1.6643    1.2225   45.0712 C.3     1  ZINC000817655807   -0.0900
     10 C10        -0.3734    1.0095   44.3233 C.ar    1  ZINC000817655807   -0.0600
     11 C11        -0.3857    0.3869   43.0894 C.ar    1  ZINC000817655807   -0.0900
     12 C12         0.7975    0.1878   42.4010 C.ar    1  ZINC000817655807   -0.0300
     13 Cl13        0.7784   -0.5950   40.8517 Cl      1  ZINC000817655807   -0.0500
     14 C14         1.9996    0.6137   42.9479 C.ar    1  ZINC000817655807    0.0600
     15 O15         3.1570    0.4040   42.2627 O.3     1  ZINC000817655807   -0.2900
     16 C16         4.2940    1.1736   42.6692 C.3     1  ZINC000817655807    0.0200
     17 C17         4.3853    1.1243   44.2003 C.3     1  ZINC000817655807    0.0200
     18 O18         3.1777    1.6731   44.7393 O.3     1  ZINC000817655807   -0.3000
     19 C19         2.0105    1.2431   44.1869 C.ar    1  ZINC000817655807    0.0600
     20 C20         0.8200    1.4425   44.8700 C.ar    1  ZINC000817655807   -0.0900
     21 C21        -1.8093    0.8781   48.9782 C.3     1  ZINC000817655807    0.1100
     22 O22        -2.1606    2.9724   50.3506 O.3     1  ZINC000817655807   -0.3000
     23 C23        -1.2415    3.6072   51.0935 C.2     1  ZINC000817655807    0.6400
     24 O24        -1.5138    4.2130   52.1111 O.2     1  ZINC000817655807   -0.5100
     25 H25         0.9229    4.6478   52.1153 H       1  ZINC000817655807    0.0900
     26 H26         1.9166    3.3308   51.4472 H       1  ZINC000817655807    0.0700
     27 H27         1.6512    4.8140   50.4997 H       1  ZINC000817655807    0.0700
     28 H28         0.3166    3.3076   48.5186 H       1  ZINC000817655807    0.1000
     29 H29         0.5803    1.8165   49.4798 H       1  ZINC000817655807    0.1000
     30 H30        -3.1880    2.8477   47.8762 H       1  ZINC000817655807    0.1100
     31 H31        -1.5570    3.3494   47.2467 H       1  ZINC000817655807    0.1000
     32 H32        -2.4917    0.8129   44.4919 H       1  ZINC000817655807    0.1100
     33 H33        -1.8226    2.2898   45.2262 H       1  ZINC000817655807    0.1100
     34 H34        -1.3205    0.0551   42.6622 H       1  ZINC000817655807    0.1400
     35 H35         5.1989    0.7507   42.2332 H       1  ZINC000817655807    0.1300
     36 H36         4.1751    2.2063   42.3412 H       1  ZINC000817655807    0.0800
     37 H37         4.4981    0.0911   44.5289 H       1  ZINC000817655807    0.0800
     38 H38         5.2387    1.7130   44.5368 H       1  ZINC000817655807    0.1300
     39 H39         0.8260    1.9331   45.8321 H       1  ZINC000817655807    0.1400
     40 H40        -1.0013    0.2090   49.2743 H       1  ZINC000817655807    0.1000
     41 H41        -2.7837    0.5629   49.3513 H       1  ZINC000817655807    0.1100
@<TRIPOS>BOND
     1     1     2    1
     2     1    25    1
     3     1    26    1
     4     1    27    1
     5     2    23   am
     6     2     3    1
     7     3     4    1
     8     3    28    1
     9     3    29    1
    10     4    21    1
    11     4     5    1
    12     4    22    1
    13     5     6    1
    14     5    30    1
    15     5    31    1
    16     6     7   am
    17     6    21    1
    18     7     8    2
    19     7     9    1
    20     9    10    1
    21     9    32    1
    22     9    33    1
    23    10    20   ar
    24    10    11   ar
    25    11    12   ar
    26    11    34    1
    27    12    13    1
    28    12    14   ar
    29    14    19   ar
    30    14    15    1
    31    15    16    1
    32    16    17    1
    33    16    35    1
    34    16    36    1
    35    17    18    1
    36    17    37    1
    37    17    38    1
    38    18    19    1
    39    19    20   ar
    40    20    39    1
    41    21    40    1
    42    21    41    1
    43    22    23    1
    44    23    24    2
@<TRIPOS>SUBSTRUCTURE
     1 ZINC000817655807        1 TEMP              0 ****  ****    0 ROOT


##########                                Name:    ZINC000573150059
##########                DOCK_Rotatable_Bonds:                   7
##########                         Heavy_Atoms:                  23
##########                    Molecular_Weight:             378.269
##########                DOCK_Rotatable_Bonds:                   7
##########                       Formal_Charge:        -2.98023e-07
##########                     HBond_Acceptors:                   5
##########                        HBond_Donors:                   2
##########                         Heavy_Atoms:                  23
##########                          Grid_Score:          -28.531235
##########                     Grid_vdw_energy:          -28.411814
##########                      Grid_es_energy:           -0.119420
##########           Internal_energy_repulsive:           10.094262

@<TRIPOS>MOLECULE
ZINC000573150059
 43 44 1 0 0
SMALL
USER_CHARGES


@<TRIPOS>ATOM
      1 C1          5.4981    2.0446   46.4744 C.3     1  ZINC000573150059    0.0300
      2 O2          5.6763    2.6918   47.7359 O.3     1  ZINC000573150059   -0.3600
      3 C3          5.3353    1.8782   48.8600 C.3     1  ZINC000573150059    0.0700
      4 H4          5.9605    0.9854   48.8653 H       1  ZINC000573150059    0.0900
      5 C5          5.5638    2.6686   50.1499 C.3     1  ZINC000573150059   -0.1700
      6 C6          3.8859    1.4757   48.7675 C.2     1  ZINC000573150059    0.5100
      7 O7          3.0297    2.1730   49.2695 O.2     1  ZINC000573150059   -0.4900
      8 N8          3.5411    0.3411   48.1272 N.am    1  ZINC000573150059   -0.6700
      9 C9          2.1954   -0.0325   48.0413 C.ar    1  ZINC000573150059    0.1900
     10 C10         1.7460   -1.1690   48.7017 C.ar    1  ZINC000573150059   -0.2000
     11 C11         0.4172   -1.5389   48.6176 C.ar    1  ZINC000573150059   -0.0500
     12 C12        -0.4685   -0.7801   47.8776 C.ar    1  ZINC000573150059   -0.2200
     13 C13        -0.0254    0.3584   47.2149 C.ar    1  ZINC000573150059    0.2400
     14 N14        -0.9216    1.1255   46.4671 N.pl3   1  ZINC000573150059   -0.7300
     15 C15        -0.9925    2.5746   46.6704 C.3     1  ZINC000573150059    0.2000
     16 H16         0.0125    2.9953   46.6402 H       1  ZINC000573150059    0.1000
     17 C17        -1.8422    3.2037   45.5644 C.3     1  ZINC000573150059   -0.1700
     18 C18        -1.6183    2.8638   48.0105 C.ar    1  ZINC000573150059    0.1400
     19 C19        -1.3481    4.0609   48.6459 C.ar    1  ZINC000573150059   -0.1600
     20 C20        -1.9290    4.3179   49.8784 C.ar    1  ZINC000573150059   -0.0400
     21 C21        -2.7638    3.3562   50.4281 C.ar    1  ZINC000573150059   -0.1500
     22 Br22       -3.5865    3.6477   52.1056 Br      1  ZINC000573150059   -0.0300
     23 C23        -2.9872    2.1814   49.7330 C.ar    1  ZINC000573150059    0.1400
     24 N24        -2.4213    1.9739   48.5604 N.ar    1  ZINC000573150059   -0.4700
     25 C25         1.3074    0.7350   47.3013 C.ar    1  ZINC000573150059   -0.1900
     26 H26         6.1267    1.1552   46.4304 H       1  ZINC000573150059    0.0500
     27 H27         4.4532    1.7570   46.3581 H       1  ZINC000573150059    0.0400
     28 H28         5.7784    2.7278   45.6727 H       1  ZINC000573150059    0.0900
     29 H29         4.9385    3.5614   50.1445 H       1  ZINC000573150059    0.0700
     30 H30         5.3036    2.0479   51.0073 H       1  ZINC000573150059    0.0700
     31 H31         6.6120    2.9596   50.2168 H       1  ZINC000573150059    0.0700
     32 H32         4.2258   -0.2165   47.7257 H       1  ZINC000573150059    0.4100
     33 H33         2.4360   -1.7645   49.2811 H       1  ZINC000573150059    0.1200
     34 H34         0.0706   -2.4234   49.1314 H       1  ZINC000573150059    0.1300
     35 H35        -1.5064   -1.0720   47.8136 H       1  ZINC000573150059    0.1200
     36 H36        -1.4971    0.6987   45.8131 H       1  ZINC000573150059    0.4100
     37 H37        -2.8473    2.7830   45.5946 H       1  ZINC000573150059    0.0600
     38 H38        -1.8950    4.2818   45.7156 H       1  ZINC000573150059    0.0700
     39 H39        -1.3897    2.9944   44.5951 H       1  ZINC000573150059    0.0700
     40 H40        -0.6926    4.7869   48.1884 H       1  ZINC000573150059    0.1500
     41 H41        -1.7356    5.2447   50.3982 H       1  ZINC000573150059    0.1500
     42 H42        -3.6356    1.4271   50.1538 H       1  ZINC000573150059    0.1700
     43 H43         1.6542    1.6194   46.7877 H       1  ZINC000573150059    0.1400
@<TRIPOS>BOND
     1     1     2    1
     2     1    26    1
     3     1    27    1
     4     1    28    1
     5     2     3    1
     6     3     4    1
     7     3     5    1
     8     3     6    1
     9     5    29    1
    10     5    30    1
    11     5    31    1
    12     6     7    2
    13     6     8   am
    14     8     9    1
    15     8    32    1
    16     9    25   ar
    17     9    10   ar
    18    10    11   ar
    19    10    33    1
    20    11    12   ar
    21    11    34    1
    22    12    13   ar
    23    12    35    1
    24    13    14    1
    25    13    25   ar
    26    14    15    1
    27    14    36    1
    28    15    16    1
    29    15    17    1
    30    15    18    1
    31    17    37    1
    32    17    38    1
    33    17    39    1
    34    18    24   ar
    35    18    19   ar
    36    19    20   ar
    37    19    40    1
    38    20    21   ar
    39    20    41    1
    40    21    22    1
    41    21    23   ar
    42    23    24   ar
    43    23    42    1
    44    25    43    1
@<TRIPOS>SUBSTRUCTURE
     1 ZINC000573150059        1 TEMP              0 ****  ****    0 ROOT


##########                                Name:    ZINC000288921983
##########                DOCK_Rotatable_Bonds:                   6
##########                         Heavy_Atoms:                  26
##########                    Molecular_Weight:             356.428
##########                DOCK_Rotatable_Bonds:                   6
##########                       Formal_Charge:           0.0199997
##########                     HBond_Acceptors:                   8
##########                        HBond_Donors:                   1
##########                         Heavy_Atoms:                  26
##########                          Grid_Score:          -28.524998
##########                     Grid_vdw_energy:          -29.331877
##########                      Grid_es_energy:            0.806880
##########           Internal_energy_repulsive:           60.007393

@<TRIPOS>MOLECULE
ZINC000288921983
 50 53 1 0 0
SMALL
USER_CHARGES


@<TRIPOS>ATOM
      1 C1         -3.7957    4.6528   53.0144 C.3     1  ZINC000288921983   -0.1400
      2 C2         -3.3467    4.8585   54.4625 C.3     1  ZINC000288921983   -0.0500
      3 C3         -4.1511    3.9636   55.3699 C.ar    1  ZINC000288921983    0.3000
      4 N4         -5.2859    4.4116   55.8683 N.ar    1  ZINC000288921983   -0.5000
      5 C5         -6.0209    3.6572   56.6684 C.ar    1  ZINC000288921983    0.1300
      6 C6         -5.5794    2.3743   56.9810 C.ar    1  ZINC000288921983    0.0500
      7 N7         -6.3269    1.5427   57.8234 N.am    1  ZINC000288921983   -0.6700
      8 C8         -7.5135    1.0558   57.4097 C.2     1  ZINC000288921983    0.7100
      9 O9         -7.9350    1.3388   56.3049 O.2     1  ZINC000288921983   -0.5500
     10 N10        -8.2331    0.2552   58.2207 N.am    1  ZINC000288921983   -0.6200
     11 C11        -7.7372   -0.0955   59.5585 C.3     1  ZINC000288921983    0.1100
     12 C12        -8.8157    0.2495   60.5903 C.3     1  ZINC000288921983   -0.1400
     13 C13       -10.1252   -0.4420   60.2042 C.3     1  ZINC000288921983   -0.1200
     14 C14       -10.5867    0.0637   58.8355 C.3     1  ZINC000288921983   -0.1300
     15 C15        -9.5312   -0.2785   57.7861 C.3     1  ZINC000288921983    0.2700
     16 H16        -9.4580   -1.3610   57.6811 H       1  ZINC000288921983    0.1100
     17 C17        -9.9168    0.3325   56.4636 C.2     1  ZINC000288921983    0.1700
     18 N18       -10.5596    1.4522   56.2900 N.2     1  ZINC000288921983   -0.2500
     19 N19       -10.7153    1.6643   55.0305 N.2     1  ZINC000288921983   -0.2700
     20 C20       -10.1770    0.6870   54.3578 C.2     1  ZINC000288921983    0.1800
     21 C21       -10.1411    0.5509   52.8574 C.3     1  ZINC000288921983   -0.0300
     22 C22        -8.7404    0.7487   52.2543 C.3     1  ZINC000288921983   -0.1200
     23 C23        -8.5288   -0.7619   52.4497 C.3     1  ZINC000288921983   -0.1400
     24 C24       -10.0580   -0.9062   52.3729 C.3     1  ZINC000288921983   -0.1200
     25 O25        -9.6556   -0.1747   55.2471 O.3     1  ZINC000288921983   -0.2200
     26 C26        -4.3753    1.9399   56.4333 C.ar    1  ZINC000288921983    0.1600
     27 N27        -3.7018    2.7538   55.6374 N.ar    1  ZINC000288921983   -0.5000
     28 H28        -3.2139    5.3001   52.3583 H       1  ZINC000288921983    0.0700
     29 H29        -3.6395    3.6122   52.7300 H       1  ZINC000288921983    0.0600
     30 H30        -4.8535    4.8995   52.9235 H       1  ZINC000288921983    0.0600
     31 H31        -2.2889    4.6119   54.5536 H       1  ZINC000288921983    0.0900
     32 H32        -3.5029    5.8991   54.7470 H       1  ZINC000288921983    0.0900
     33 H33        -6.9496    4.0310   57.0735 H       1  ZINC000288921983    0.1700
     34 H34        -5.9906    1.3170   58.7048 H       1  ZINC000288921983    0.4100
     35 H35        -7.5204   -1.1630   59.5997 H       1  ZINC000288921983    0.0800
     36 H36        -6.8316    0.4719   59.7729 H       1  ZINC000288921983    0.0800
     37 H37        -8.4997   -0.0937   61.5755 H       1  ZINC000288921983    0.0900
     38 H38        -8.9666    1.3288   60.6117 H       1  ZINC000288921983    0.0700
     39 H39        -9.9673   -1.5195   60.1589 H       1  ZINC000288921983    0.0700
     40 H40       -10.8878   -0.2179   60.9502 H       1  ZINC000288921983    0.0800
     41 H41       -11.5314   -0.4118   58.5717 H       1  ZINC000288921983    0.0900
     42 H42       -10.7211    1.1447   58.8734 H       1  ZINC000288921983    0.0900
     43 H43       -10.9179    1.1324   52.3609 H       1  ZINC000288921983    0.1000
     44 H44        -8.7548    1.0558   51.2085 H       1  ZINC000288921983    0.1000
     45 H45        -8.0836    1.3646   52.8684 H       1  ZINC000288921983    0.0800
     46 H46        -8.0031   -1.2397   51.6230 H       1  ZINC000288921983    0.0700
     47 H47        -8.1140   -1.0223   53.4235 H       1  ZINC000288921983    0.1000
     48 H48       -10.4648   -1.6263   53.0829 H       1  ZINC000288921983    0.0700
     49 H49       -10.4325   -1.0516   51.3596 H       1  ZINC000288921983    0.1000
     50 H50        -3.9988    0.9516   56.6520 H       1  ZINC000288921983    0.1800
@<TRIPOS>BOND
     1     1     2    1
     2     1    28    1
     3     1    29    1
     4     1    30    1
     5     2     3    1
     6     2    31    1
     7     2    32    1
     8     3    27   ar
     9     3     4   ar
    10     4     5   ar
    11     5     6   ar
    12     5    33    1
    13     6     7    1
    14     6    26   ar
    15     7     8   am
    16     7    34    1
    17     8     9    2
    18     8    10   am
    19    10    15    1
    20    10    11    1
    21    11    12    1
    22    11    35    1
    23    11    36    1
    24    12    13    1
    25    12    37    1
    26    12    38    1
    27    13    14    1
    28    13    39    1
    29    13    40    1
    30    14    15    1
    31    14    41    1
    32    14    42    1
    33    15    16    1
    34    15    17    1
    35    17    25    1
    36    17    18    2
    37    18    19    1
    38    19    20    2
    39    20    21    1
    40    20    25    1
    41    21    24    1
    42    21    22    1
    43    21    43    1
    44    22    23    1
    45    22    44    1
    46    22    45    1
    47    23    24    1
    48    23    46    1
    49    23    47    1
    50    24    48    1
    51    24    49    1
    52    26    27   ar
    53    26    50    1
@<TRIPOS>SUBSTRUCTURE
     1 ZINC000288921983        1 TEMP              0 ****  ****    0 ROOT


##########                                Name:    ZINC000502834785
##########                DOCK_Rotatable_Bonds:                   9
##########                         Heavy_Atoms:                  26
##########                    Molecular_Weight:             356.468
##########                DOCK_Rotatable_Bonds:                   9
##########                       Formal_Charge:           0.0199998
##########                     HBond_Acceptors:                   6
##########                        HBond_Donors:                   2
##########                         Heavy_Atoms:                  26
##########                          Grid_Score:          -28.496758
##########                     Grid_vdw_energy:          -27.161472
##########                      Grid_es_energy:           -1.335286
##########           Internal_energy_repulsive:           22.367058

@<TRIPOS>MOLECULE
ZINC000502834785
 54 56 1 0 0
SMALL
USER_CHARGES


@<TRIPOS>ATOM
      1 C1          2.1000    2.1964   43.9475 C.3     1  ZINC000502834785   -0.1800
      2 C2          1.2493    1.6279   45.0851 C.3     1  ZINC000502834785    0.0800
      3 C3          1.9778    1.8279   46.4157 C.3     1  ZINC000502834785   -0.1500
      4 O4         -0.0082    2.3057   45.1240 O.3     1  ZINC000502834785   -0.3800
      5 C5         -0.9994    1.6467   45.9148 C.3     1  ZINC000502834785    0.1000
      6 C6         -1.4498    2.5638   47.0224 C.ar    1  ZINC000502834785   -0.0800
      7 C7         -1.2752    3.9299   46.9026 C.ar    1  ZINC000502834785   -0.1000
      8 C8         -1.6884    4.7712   47.9186 C.ar    1  ZINC000502834785   -0.1000
      9 C9         -2.2765    4.2465   49.0543 C.ar    1  ZINC000502834785   -0.1000
     10 C10        -2.7265    5.1638   50.1622 C.3     1  ZINC000502834785    0.1600
     11 N11        -2.5989    4.4747   51.4487 N.am    1  ZINC000502834785   -0.7300
     12 C12        -3.2618    4.9348   52.5282 C.2     1  ZINC000502834785    0.5100
     13 O13        -3.9650    5.9184   52.4343 O.2     1  ZINC000502834785   -0.5200
     14 C14        -3.1291    4.2270   53.8520 C.3     1  ZINC000502834785    0.0300
     15 N15        -1.7751    4.4326   54.3836 N.3     1  ZINC000502834785   -0.5000
     16 C16        -0.7643    3.7765   53.5271 C.3     1  ZINC000502834785    0.0500
     17 C17         0.3393    3.3060   54.5070 C.3     1  ZINC000502834785   -0.1300
     18 C18        -0.4992    2.8693   55.7370 C.3     1  ZINC000502834785   -0.1300
     19 C19        -1.6558    3.8909   55.7497 C.3     1  ZINC000502834785    0.1500
     20 H20        -1.4320    4.6959   56.4496 H       1  ZINC000502834785    0.1100
     21 C21        -2.9388    3.2078   56.1477 C.2     1  ZINC000502834785    0.0600
     22 N22        -3.2738    1.9764   55.8591 N.2     1  ZINC000502834785   -0.2900
     23 N23        -4.5376    1.7262   56.4094 N.pl3   1  ZINC000502834785   -0.4800
     24 C24        -4.9471    2.8487   57.0364 C.2     1  ZINC000502834785    0.0600
     25 C25        -3.9745    3.7788   56.8945 C.2     1  ZINC000502834785   -0.2600
     26 C26        -2.4523    2.8807   49.1735 C.ar    1  ZINC000502834785   -0.1000
     27 C27        -2.0426    2.0396   48.1558 C.ar    1  ZINC000502834785   -0.1000
     28 H28         1.5810    2.0540   42.9996 H       1  ZINC000502834785    0.0600
     29 H29         2.2658    3.2607   44.1146 H       1  ZINC000502834785    0.0600
     30 H30         3.0592    1.6795   43.9178 H       1  ZINC000502834785    0.0700
     31 H31         1.0835    0.5637   44.9181 H       1  ZINC000502834785    0.0600
     32 H32         2.1436    2.8922   46.5827 H       1  ZINC000502834785    0.0600
     33 H33         1.3718    1.4229   47.2261 H       1  ZINC000502834785    0.0600
     34 H34         2.9369    1.3110   46.3860 H       1  ZINC000502834785    0.0700
     35 H35        -1.8525    1.3887   45.2871 H       1  ZINC000502834785    0.0600
     36 H36        -0.5767    0.7384   46.3443 H       1  ZINC000502834785    0.0600
     37 H37        -0.8158    4.3398   46.0153 H       1  ZINC000502834785    0.1300
     38 H38        -1.5514    5.8384   47.8254 H       1  ZINC000502834785    0.1300
     39 H39        -2.1057    6.0597   50.1668 H       1  ZINC000502834785    0.0800
     40 H40        -3.7676    5.4439   50.0017 H       1  ZINC000502834785    0.0800
     41 H41        -2.0374    3.6872   51.5236 H       1  ZINC000502834785    0.4000
     42 H42        -3.8598    4.6289   54.5538 H       1  ZINC000502834785    0.1000
     43 H43        -3.3068    3.1606   53.7133 H       1  ZINC000502834785    0.0800
     44 H44        -1.2018    2.9226   53.0099 H       1  ZINC000502834785    0.0400
     45 H45        -0.3561    4.4877   52.8090 H       1  ZINC000502834785    0.1000
     46 H46         0.8948    2.4638   54.0942 H       1  ZINC000502834785    0.0800
     47 H47         1.0099    4.1263   54.7629 H       1  ZINC000502834785    0.0800
     48 H48        -0.8806    1.8569   55.6037 H       1  ZINC000502834785    0.0800
     49 H49         0.0901    2.9431   56.6510 H       1  ZINC000502834785    0.0800
     50 H50        -5.0311    0.8932   56.3502 H       1  ZINC000502834785    0.4400
     51 H51        -5.8818    2.9800   57.5613 H       1  ZINC000502834785    0.1800
     52 H52        -3.9967    4.7859   57.2838 H       1  ZINC000502834785    0.1500
     53 H53        -2.9122    2.4707   50.0606 H       1  ZINC000502834785    0.1300
     54 H54        -2.1800    0.9724   48.2490 H       1  ZINC000502834785    0.1200
@<TRIPOS>BOND
     1     1     2    1
     2     1    28    1
     3     1    29    1
     4     1    30    1
     5     2     3    1
     6     2     4    1
     7     2    31    1
     8     3    32    1
     9     3    33    1
    10     3    34    1
    11     4     5    1
    12     5     6    1
    13     5    35    1
    14     5    36    1
    15     6    27   ar
    16     6     7   ar
    17     7     8   ar
    18     7    37    1
    19     8     9   ar
    20     8    38    1
    21     9    10    1
    22     9    26   ar
    23    10    11    1
    24    10    39    1
    25    10    40    1
    26    11    12   am
    27    11    41    1
    28    12    13    2
    29    12    14    1
    30    14    15    1
    31    14    42    1
    32    14    43    1
    33    15    19    1
    34    15    16    1
    35    16    17    1
    36    16    44    1
    37    16    45    1
    38    17    18    1
    39    17    46    1
    40    17    47    1
    41    18    19    1
    42    18    48    1
    43    18    49    1
    44    19    20    1
    45    19    21    1
    46    21    25    1
    47    21    22    2
    48    22    23    1
    49    23    24    1
    50    23    50    1
    51    24    25    2
    52    24    51    1
    53    25    52    1
    54    26    27   ar
    55    26    53    1
    56    27    54    1
@<TRIPOS>SUBSTRUCTURE
     1 ZINC000502834785        1 TEMP              0 ****  ****    0 ROOT


##########                                Name:    ZINC000534799364
##########                DOCK_Rotatable_Bonds:                   4
##########                         Heavy_Atoms:                  29
##########                    Molecular_Weight:             391.491
##########                DOCK_Rotatable_Bonds:                   4
##########                       Formal_Charge:           0.0199998
##########                     HBond_Acceptors:                   6
##########                        HBond_Donors:                   0
##########                         Heavy_Atoms:                  29
##########                          Grid_Score:          -28.494942
##########                     Grid_vdw_energy:          -27.712774
##########                      Grid_es_energy:           -0.782167
##########           Internal_energy_repulsive:            9.209908

@<TRIPOS>MOLECULE
ZINC000534799364
 55 59 1 0 0
SMALL
USER_CHARGES


@<TRIPOS>ATOM
      1 C1        -15.1305   -3.4701   59.8386 C.3     1  ZINC000534799364   -0.1100
      2 C2        -15.3805   -2.1005   59.2619 C.ar    1  ZINC000534799364   -0.0200
      3 C3        -16.6603   -1.6985   58.9173 C.ar    1  ZINC000534799364   -0.1700
      4 C4        -16.8524   -0.4344   58.3907 C.ar    1  ZINC000534799364    0.1000
      5 N5        -15.8368    0.3876   58.2141 N.ar    1  ZINC000534799364   -0.4800
      6 C6        -14.6033    0.0453   58.5284 C.ar    1  ZINC000534799364    0.0800
      7 C7        -14.3310   -1.2053   59.0677 C.ar    1  ZINC000534799364    0.0300
      8 N8        -13.0224   -1.5643   59.4000 N.3     1  ZINC000534799364   -0.5000
      9 C9        -12.6133   -0.9475   60.6696 C.3     1  ZINC000534799364    0.0600
     10 C10       -11.2073   -1.4275   61.0373 C.3     1  ZINC000534799364    0.0600
     11 N11       -10.2741   -1.0740   59.9585 N.3     1  ZINC000534799364   -0.5300
     12 C12        -8.8981   -1.4515   60.3080 C.3     1  ZINC000534799364    0.1400
     13 C13        -8.4193   -0.5993   61.4550 C.2     1  ZINC000534799364    0.1100
     14 N14        -8.4330   -0.9372   62.7184 N.2     1  ZINC000534799364   -0.2800
     15 N15        -7.9058    0.1257   63.4616 N.pl3   1  ZINC000534799364   -0.3100
     16 C16        -7.7480    0.1603   64.8548 C.ar    1  ZINC000534799364    0.1500
     17 C17        -6.5539    0.6019   65.4083 C.ar    1  ZINC000534799364   -0.1000
     18 C18        -6.4004    0.6353   66.7803 C.ar    1  ZINC000534799364   -0.1300
     19 C19        -7.4367    0.2287   67.6040 C.ar    1  ZINC000534799364    0.1000
     20 F20        -7.2849    0.2624   68.9459 F       1  ZINC000534799364   -0.1300
     21 C21        -8.6287   -0.2122   67.0536 C.ar    1  ZINC000534799364   -0.1300
     22 C22        -8.7879   -0.2415   65.6821 C.ar    1  ZINC000534799364   -0.0800
     23 C23        -7.5749    1.1148   62.5970 C.2     1  ZINC000534799364    0.0500
     24 C24        -7.8771    0.6895   61.3502 C.2     1  ZINC000534799364   -0.2200
     25 C25        -7.5282    1.7559   60.3343 C.3     1  ZINC000534799364   -0.0400
     26 C26        -7.3734    3.0549   61.1550 C.3     1  ZINC000534799364   -0.1200
     27 C27        -6.9889    2.5090   62.5486 C.3     1  ZINC000534799364   -0.0500
     28 C28       -10.6831   -1.6908   58.6890 C.3     1  ZINC000534799364    0.0600
     29 C29       -12.0891   -1.2108   58.3213 C.3     1  ZINC000534799364    0.0600
     30 H30       -15.1215   -3.4101   60.9269 H       1  ZINC000534799364    0.0800
     31 H31       -15.9211   -4.1489   59.5187 H       1  ZINC000534799364    0.0600
     32 H32       -14.1681   -3.8421   59.4873 H       1  ZINC000534799364    0.0800
     33 H33       -17.4985   -2.3648   59.0579 H       1  ZINC000534799364    0.1400
     34 H34       -17.8483   -0.1162   58.1200 H       1  ZINC000534799364    0.1600
     35 H35       -13.7969    0.7459   58.3689 H       1  ZINC000534799364    0.1500
     36 H36       -12.6108    0.1373   60.5627 H       1  ZINC000534799364    0.0500
     37 H37       -13.3125   -1.2342   61.4551 H       1  ZINC000534799364    0.0800
     38 H38       -10.8903   -0.9489   61.9638 H       1  ZINC000534799364    0.0900
     39 H39       -11.2157   -2.5093   61.1709 H       1  ZINC000534799364    0.0500
     40 H40        -8.8724   -2.5014   60.6000 H       1  ZINC000534799364    0.1000
     41 H41        -8.2492   -1.2982   59.4458 H       1  ZINC000534799364    0.0500
     42 H42        -5.7453    0.9188   64.7662 H       1  ZINC000534799364    0.1400
     43 H43        -5.4714    0.9784   67.2112 H       1  ZINC000534799364    0.1500
     44 H44        -9.4357   -0.5293   67.6975 H       1  ZINC000534799364    0.1500
     45 H45        -9.7177   -0.5850   65.2533 H       1  ZINC000534799364    0.1400
     46 H46        -6.5916    1.5102   59.8338 H       1  ZINC000534799364    0.0800
     47 H47        -8.3316    1.8618   59.6053 H       1  ZINC000534799364    0.0700
     48 H48        -6.5771    3.6790   60.7496 H       1  ZINC000534799364    0.0800
     49 H49        -8.3141    3.6040   61.1957 H       1  ZINC000534799364    0.0800
     50 H50        -7.4258    3.1284   63.3319 H       1  ZINC000534799364    0.0800
     51 H51        -5.9047    2.4715   62.6549 H       1  ZINC000534799364    0.0900
     52 H52        -9.9839   -1.4040   57.9034 H       1  ZINC000534799364    0.0900
     53 H53       -10.6856   -2.7755   58.7959 H       1  ZINC000534799364    0.0500
     54 H54       -12.4061   -1.6894   57.3947 H       1  ZINC000534799364    0.0800
     55 H55       -12.0807   -0.1290   58.1878 H       1  ZINC000534799364    0.0500
@<TRIPOS>BOND
     1     1     2    1
     2     1    30    1
     3     1    31    1
     4     1    32    1
     5     2     7   ar
     6     2     3   ar
     7     3     4   ar
     8     3    33    1
     9     4     5   ar
    10     4    34    1
    11     5     6   ar
    12     6     7   ar
    13     6    35    1
    14     7     8    1
    15     8    29    1
    16     8     9    1
    17     9    10    1
    18     9    36    1
    19     9    37    1
    20    10    11    1
    21    10    38    1
    22    10    39    1
    23    11    12    1
    24    11    28    1
    25    12    13    1
    26    12    40    1
    27    12    41    1
    28    13    24    1
    29    13    14    2
    30    14    15    1
    31    15    16    1
    32    15    23    1
    33    16    22   ar
    34    16    17   ar
    35    17    18   ar
    36    17    42    1
    37    18    19   ar
    38    18    43    1
    39    19    20    1
    40    19    21   ar
    41    21    22   ar
    42    21    44    1
    43    22    45    1
    44    23    27    1
    45    23    24    2
    46    24    25    1
    47    25    26    1
    48    25    46    1
    49    25    47    1
    50    26    27    1
    51    26    48    1
    52    26    49    1
    53    27    50    1
    54    27    51    1
    55    28    29    1
    56    28    52    1
    57    28    53    1
    58    29    54    1
    59    29    55    1
@<TRIPOS>SUBSTRUCTURE
     1 ZINC000534799364        1 TEMP              0 ****  ****    0 ROOT


##########                                Name:    ZINC000842947763
##########                DOCK_Rotatable_Bonds:                   7
##########                         Heavy_Atoms:                  24
##########                    Molecular_Weight:             365.373
##########                DOCK_Rotatable_Bonds:                   7
##########                       Formal_Charge:          0.00999997
##########                     HBond_Acceptors:                   9
##########                        HBond_Donors:                   0
##########                         Heavy_Atoms:                  24
##########                          Grid_Score:          -28.488739
##########                     Grid_vdw_energy:          -26.169752
##########                      Grid_es_energy:           -2.318987
##########           Internal_energy_repulsive:           33.178814

@<TRIPOS>MOLECULE
ZINC000842947763
 42 43 1 0 0
SMALL
USER_CHARGES


@<TRIPOS>ATOM
      1 C1        -15.1837   -3.1348   60.5579 C.3     1  ZINC000842947763   -0.1600
      2 C2        -15.4823   -2.8916   59.0773 C.3     1  ZINC000842947763   -0.1000
      3 H3        -16.5236   -3.1389   58.8711 H       1  ZINC000842947763    0.1000
      4 C4        -14.5700   -3.7729   58.2216 C.3     1  ZINC000842947763    0.0800
      5 O5        -13.1876   -3.5615   58.6124 O.3     1  ZINC000842947763   -0.3500
      6 C6        -12.3263   -3.1977   57.6418 C.2     1  ZINC000842947763    0.5200
      7 O7        -12.4618   -3.6322   56.5151 O.2     1  ZINC000842947763   -0.5100
      8 C8        -11.2198   -2.2733   57.9471 C.ar    1  ZINC000842947763   -0.1600
      9 C9        -10.8263   -1.3121   57.0106 C.ar    1  ZINC000842947763   -0.0200
     10 C10        -9.7945   -0.4533   57.3015 C.ar    1  ZINC000842947763   -0.1700
     11 C11        -9.1319   -0.5341   58.5324 C.ar    1  ZINC000842947763    0.2000
     12 C12        -9.5305   -1.4928   59.4566 C.ar    1  ZINC000842947763   -0.1500
     13 C13       -10.5596   -2.3472   59.1772 C.ar    1  ZINC000842947763   -0.0100
     14 C14        -8.6594   -1.3629   60.6867 C.3     1  ZINC000842947763   -0.0800
     15 C15        -7.7028   -0.2049   60.3587 C.3     1  ZINC000842947763    0.1100
     16 N16        -8.0776    0.2336   59.0120 N.am    1  ZINC000842947763   -0.9400
     17 S17        -7.3491    1.4666   58.1806 S.o2    1  ZINC000842947763    2.6100
     18 C18        -7.5973    2.9271   59.2274 C.3     1  ZINC000842947763   -0.6700
     19 O19        -5.9755    1.1039   58.1481 O.2     1  ZINC000842947763   -0.9300
     20 O20        -8.1061    1.5770   56.9831 O.2     1  ZINC000842947763   -0.9400
     21 C21       -15.2313   -1.4203   58.7412 C.3     1  ZINC000842947763   -0.1600
     22 C22       -16.4343   -0.5841   59.1823 C.3     1  ZINC000842947763    0.4600
     23 F23       -16.4169   -0.4398   60.5737 F       1  ZINC000842947763   -0.1800
     24 F24       -16.3705    0.6779   58.5817 F       1  ZINC000842947763   -0.1800
     25 F25       -17.6155   -1.2257   58.7948 F       1  ZINC000842947763   -0.1800
     26 H26       -15.9236   -2.6161   61.1677 H       1  ZINC000842947763    0.0700
     27 H27       -15.2260   -4.2038   60.7664 H       1  ZINC000842947763    0.0700
     28 H28       -14.1889   -2.7574   60.7948 H       1  ZINC000842947763    0.0600
     29 H29       -14.8333   -4.8202   58.3698 H       1  ZINC000842947763    0.0800
     30 H30       -14.6944   -3.5121   57.1706 H       1  ZINC000842947763    0.0800
     31 H31       -11.3331   -1.2454   56.0592 H       1  ZINC000842947763    0.1500
     32 H32        -9.4924    0.2883   56.5767 H       1  ZINC000842947763    0.1500
     33 H33       -10.8584   -3.0868   59.9053 H       1  ZINC000842947763    0.1400
     34 H34        -9.2663   -1.1200   61.5589 H       1  ZINC000842947763    0.1000
     35 H35        -8.0996   -2.2829   60.8556 H       1  ZINC000842947763    0.1000
     36 H36        -7.8356    0.6087   61.0719 H       1  ZINC000842947763    0.1000
     37 H37        -6.6699   -0.5531   60.3691 H       1  ZINC000842947763    0.0900
     38 H38        -7.1320    2.7609   60.1992 H       1  ZINC000842947763    0.1300
     39 H39        -7.1438    3.7966   58.7515 H       1  ZINC000842947763    0.1400
     40 H40        -8.6649    3.1014   59.3609 H       1  ZINC000842947763    0.1300
     41 H41       -14.3385   -1.0756   59.2628 H       1  ZINC000842947763    0.1200
     42 H42       -15.0885   -1.3124   57.6660 H       1  ZINC000842947763    0.1100
@<TRIPOS>BOND
     1     1     2    1
     2     1    26    1
     3     1    27    1
     4     1    28    1
     5     2     3    1
     6     2     4    1
     7     2    21    1
     8     4     5    1
     9     4    29    1
    10     4    30    1
    11     5     6    1
    12     6     7    2
    13     6     8    1
    14     8    13   ar
    15     8     9   ar
    16     9    10   ar
    17     9    31    1
    18    10    11   ar
    19    10    32    1
    20    11    16    1
    21    11    12   ar
    22    12    13   ar
    23    12    14    1
    24    13    33    1
    25    14    15    1
    26    14    34    1
    27    14    35    1
    28    15    16    1
    29    15    36    1
    30    15    37    1
    31    16    17   am
    32    17    18    1
    33    17    19    2
    34    17    20    2
    35    18    38    1
    36    18    39    1
    37    18    40    1
    38    21    22    1
    39    21    41    1
    40    21    42    1
    41    22    23    1
    42    22    24    1
    43    22    25    1
@<TRIPOS>SUBSTRUCTURE
     1 ZINC000842947763        1 TEMP              0 ****  ****    0 ROOT


##########                                Name:    ZINC000970996691
##########                DOCK_Rotatable_Bonds:                   7
##########                         Heavy_Atoms:                  24
##########                    Molecular_Weight:             334.462
##########                DOCK_Rotatable_Bonds:                   7
##########                       Formal_Charge:          -0.0199999
##########                     HBond_Acceptors:                   6
##########                        HBond_Donors:                   0
##########                         Heavy_Atoms:                  24
##########                          Grid_Score:          -28.486732
##########                     Grid_vdw_energy:          -28.729561
##########                      Grid_es_energy:            0.242828
##########           Internal_energy_repulsive:           13.762176

@<TRIPOS>MOLECULE
ZINC000970996691
 54 56 1 0 0
SMALL
USER_CHARGES


@<TRIPOS>ATOM
      1 C1         -7.2925    3.0683   59.5780 C.3     1  ZINC000970996691   -0.1500
      2 C2         -6.3248    3.6765   58.5610 C.3     1  ZINC000970996691   -0.1200
      3 C3         -5.9283    2.6129   57.5350 C.3     1  ZINC000970996691   -0.0300
      4 C4         -4.9099    3.1872   56.5842 C.2     1  ZINC000970996691    0.1800
      5 N5         -5.1569    3.7945   55.4486 N.2     1  ZINC000970996691   -0.4700
      6 C6         -3.9545    4.1321   54.9495 C.2     1  ZINC000970996691    0.1800
      7 C7         -3.6983    4.8551   53.6523 C.3     1  ZINC000970996691    0.1500
      8 N8         -3.3949    3.8776   52.5986 N.3     1  ZINC000970996691   -0.5200
      9 C9         -4.4645    2.8771   52.4848 C.3     1  ZINC000970996691    0.0200
     10 C10        -3.1606    4.5464   51.3117 C.3     1  ZINC000970996691    0.0700
     11 H11        -4.0975    4.8999   50.8813 H       1  ZINC000970996691    0.0600
     12 C12        -2.1457    5.7097   51.4662 C.3     1  ZINC000970996691   -0.1300
     13 C13        -1.5244    5.8158   50.0576 C.3     1  ZINC000970996691    0.1000
     14 N14        -1.7248    4.5196   49.3935 N.am    1  ZINC000970996691   -0.6200
     15 C15        -1.3406    4.2121   48.1387 C.2     1  ZINC000970996691    0.5300
     16 O16        -0.7769    5.0414   47.4566 O.2     1  ZINC000970996691   -0.5300
     17 C17        -1.6116    2.8376   47.5833 C.3     1  ZINC000970996691   -0.1000
     18 C18        -1.4409    2.8590   46.0630 C.3     1  ZINC000970996691   -0.1100
     19 C19        -1.7161    1.4635   45.4992 C.3     1  ZINC000970996691   -0.1200
     20 C20        -0.7312    0.4640   46.1089 C.3     1  ZINC000970996691   -0.1200
     21 C21        -0.9018    0.4425   47.6293 C.3     1  ZINC000970996691   -0.1200
     22 C22        -0.6267    1.8379   48.1930 C.3     1  ZINC000970996691   -0.1000
     23 C23        -2.4153    3.6109   50.3274 C.3     1  ZINC000970996691    0.1200
     24 N24        -3.0543    3.7205   55.7914 N.2     1  ZINC000970996691   -0.3800
     25 O25        -3.5826    3.1803   56.7402 O.3     1  ZINC000970996691    0.0800
     26 H26        -8.1838    2.7105   59.0627 H       1  ZINC000970996691    0.0600
     27 H27        -6.8081    2.2350   60.0872 H       1  ZINC000970996691    0.0600
     28 H28        -7.5750    3.8259   60.3090 H       1  ZINC000970996691    0.0600
     29 H29        -6.8092    4.5098   58.0519 H       1  ZINC000970996691    0.0700
     30 H30        -5.4335    4.0343   59.0764 H       1  ZINC000970996691    0.0700
     31 H31        -5.5002    1.7531   58.0502 H       1  ZINC000970996691    0.1100
     32 H32        -6.8106    2.2998   56.9768 H       1  ZINC000970996691    0.1000
     33 H33        -4.5836    5.4267   53.3739 H       1  ZINC000970996691    0.0700
     34 H34        -2.8525    5.5318   53.7746 H       1  ZINC000970996691    0.1100
     35 H35        -5.4029    3.3747   52.2403 H       1  ZINC000970996691    0.0300
     36 H36        -4.2144    2.1659   51.6976 H       1  ZINC000970996691    0.0800
     37 H37        -4.5696    2.3484   53.4323 H       1  ZINC000970996691    0.0700
     38 H38        -2.6569    6.6347   51.7329 H       1  ZINC000970996691    0.0800
     39 H39        -1.3843    5.4617   52.2059 H       1  ZINC000970996691    0.0900
     40 H40        -2.0218    6.6033   49.4914 H       1  ZINC000970996691    0.0700
     41 H41        -0.4587    6.0305   50.1376 H       1  ZINC000970996691    0.0700
     42 H42        -2.6307    2.5403   47.8304 H       1  ZINC000970996691    0.0900
     43 H43        -2.1427    3.5712   45.6287 H       1  ZINC000970996691    0.0700
     44 H44        -0.4218    3.1563   45.8159 H       1  ZINC000970996691    0.0700
     45 H45        -2.7352    1.1663   45.7464 H       1  ZINC000970996691    0.0600
     46 H46        -1.5945    1.4789   44.4162 H       1  ZINC000970996691    0.0700
     47 H47        -0.9272   -0.5303   45.7072 H       1  ZINC000970996691    0.0600
     48 H48         0.2879    0.7613   45.8618 H       1  ZINC000970996691    0.0600
     49 H49        -1.9209    0.1452   47.8763 H       1  ZINC000970996691    0.0600
     50 H50        -0.2002   -0.2697   48.0636 H       1  ZINC000970996691    0.0700
     51 H51         0.3925    2.1353   47.9460 H       1  ZINC000970996691    0.0800
     52 H52        -0.7483    1.8227   49.2762 H       1  ZINC000970996691    0.0600
     53 H53        -1.6920    2.9963   50.8632 H       1  ZINC000970996691    0.0800
     54 H54        -3.1246    2.9816   49.7897 H       1  ZINC000970996691    0.0800
@<TRIPOS>BOND
     1     1     2    1
     2     1    26    1
     3     1    27    1
     4     1    28    1
     5     2     3    1
     6     2    29    1
     7     2    30    1
     8     3     4    1
     9     3    31    1
    10     3    32    1
    11     4    25    1
    12     4     5    2
    13     5     6    1
    14     6     7    1
    15     6    24    2
    16     7     8    1
    17     7    33    1
    18     7    34    1
    19     8     9    1
    20     8    10    1
    21     9    35    1
    22     9    36    1
    23     9    37    1
    24    10    11    1
    25    10    23    1
    26    10    12    1
    27    12    13    1
    28    12    38    1
    29    12    39    1
    30    13    14    1
    31    13    40    1
    32    13    41    1
    33    14    15   am
    34    14    23    1
    35    15    16    2
    36    15    17    1
    37    17    22    1
    38    17    18    1
    39    17    42    1
    40    18    19    1
    41    18    43    1
    42    18    44    1
    43    19    20    1
    44    19    45    1
    45    19    46    1
    46    20    21    1
    47    20    47    1
    48    20    48    1
    49    21    22    1
    50    21    49    1
    51    21    50    1
    52    22    51    1
    53    22    52    1
    54    23    53    1
    55    23    54    1
    56    24    25    1
@<TRIPOS>SUBSTRUCTURE
     1 ZINC000970996691        1 TEMP              0 ****  ****    0 ROOT


##########                                Name:    ZINC001082278299
##########                DOCK_Rotatable_Bonds:                   9
##########                         Heavy_Atoms:                  25
##########                    Molecular_Weight:              346.47
##########                DOCK_Rotatable_Bonds:                   9
##########                       Formal_Charge:           0.0200001
##########                     HBond_Acceptors:                   5
##########                        HBond_Donors:                   1
##########                         Heavy_Atoms:                  25
##########                          Grid_Score:          -28.485025
##########                     Grid_vdw_energy:          -28.245602
##########                      Grid_es_energy:           -0.239425
##########           Internal_energy_repulsive:           84.253197

@<TRIPOS>MOLECULE
ZINC001082278299
 55 57 1 0 0
SMALL
USER_CHARGES


@<TRIPOS>ATOM
      1 C1         -8.5409   -1.4681   60.9820 C.3     1  ZINC001082278299   -0.1300
      2 C2         -8.1588   -0.3179   61.8775 C.2     1  ZINC001082278299    0.0000
      3 C3         -8.0556    0.9096   61.3760 C.2     1  ZINC001082278299   -0.2300
      4 C4         -8.3143    1.1446   59.9472 C.2     1  ZINC001082278299    0.5400
      5 O5         -9.4236    1.4780   59.5769 O.2     1  ZINC001082278299   -0.5300
      6 N6         -7.3219    0.9904   59.0483 N.am    1  ZINC001082278299   -0.7400
      7 C7         -7.5792    1.2263   57.6255 C.3     1  ZINC001082278299    0.1300
      8 C8         -6.4265    2.0342   57.0260 C.3     1  ZINC001082278299    0.1400
      9 H9         -5.5078    1.4493   57.0714 H       1  ZINC001082278299    0.0800
     10 C10        -6.2466    3.3352   57.8146 C.3     1  ZINC001082278299   -0.1300
     11 C11        -5.1879    4.2011   57.1279 C.3     1  ZINC001082278299   -0.1200
     12 C12        -5.6541    4.5541   55.7137 C.3     1  ZINC001082278299   -0.1400
     13 C13        -5.8273    3.2670   54.9012 C.3     1  ZINC001082278299    0.1100
     14 N14        -6.7316    2.3643   55.6271 N.am    1  ZINC001082278299   -0.6100
     15 C15        -7.8225    1.8531   55.0228 C.2     1  ZINC001082278299    0.5100
     16 O16        -8.5610    1.1091   55.6326 O.2     1  ZINC001082278299   -0.5100
     17 C17        -8.1246    2.2061   53.5891 C.3     1  ZINC001082278299   -0.1100
     18 C18        -9.2826    1.3748   53.1005 C.2     1  ZINC001082278299   -0.0900
     19 C19        -9.0543    0.1599   52.6986 C.2     1  ZINC001082278299   -0.1800
     20 C20       -10.1372   -0.7461   52.1853 C.3     1  ZINC001082278299    0.0900
     21 O21       -11.4209   -0.2298   52.5427 O.3     1  ZINC001082278299   -0.3800
     22 C22       -11.5836    1.1526   52.2020 C.3     1  ZINC001082278299    0.0600
     23 C23       -10.6591    1.9803   53.1021 C.3     1  ZINC001082278299   -0.1100
     24 C24        -7.8937   -0.5584   63.3414 C.3     1  ZINC001082278299   -0.1200
     25 C25        -8.1560    0.5995   64.3064 C.3     1  ZINC001082278299   -0.1900
     26 C26        -9.1012   -0.6034   64.2799 C.3     1  ZINC001082278299   -0.1500
     27 H27        -7.6406   -1.9136   60.5588 H       1  ZINC001082278299    0.0800
     28 H28        -9.0786   -2.2176   61.5626 H       1  ZINC001082278299    0.0800
     29 H29        -9.1797   -1.1051   60.1768 H       1  ZINC001082278299    0.0700
     30 H30        -7.7818    1.7338   62.0180 H       1  ZINC001082278299    0.1300
     31 H31        -6.4374    0.7233   59.3435 H       1  ZINC001082278299    0.3900
     32 H32        -7.6607    0.2706   57.1077 H       1  ZINC001082278299    0.0900
     33 H33        -8.5100    1.7818   57.5118 H       1  ZINC001082278299    0.0800
     34 H34        -7.1930    3.8749   57.8469 H       1  ZINC001082278299    0.0700
     35 H35        -5.9245    3.1037   58.8299 H       1  ZINC001082278299    0.0800
     36 H36        -5.0402    5.1166   57.7007 H       1  ZINC001082278299    0.0700
     37 H37        -4.2483    3.6512   57.0738 H       1  ZINC001082278299    0.0700
     38 H38        -6.6061    5.0824   55.7657 H       1  ZINC001082278299    0.0700
     39 H39        -4.9104    5.1902   55.2336 H       1  ZINC001082278299    0.0800
     40 H40        -6.2531    3.5047   53.9264 H       1  ZINC001082278299    0.0900
     41 H41        -4.8589    2.7839   54.7712 H       1  ZINC001082278299    0.0700
     42 H42        -8.3819    3.2631   53.5217 H       1  ZINC001082278299    0.1000
     43 H43        -7.2479    2.0056   52.9732 H       1  ZINC001082278299    0.1000
     44 H44        -8.0419   -0.2144   52.7348 H       1  ZINC001082278299    0.1100
     45 H45       -10.0653   -0.8163   51.0999 H       1  ZINC001082278299    0.0600
     46 H46       -10.0135   -1.7386   52.6186 H       1  ZINC001082278299    0.1000
     47 H47       -11.3184    1.3066   51.1560 H       1  ZINC001082278299    0.0600
     48 H48       -12.6187    1.4518   52.3666 H       1  ZINC001082278299    0.1000
     49 H49       -11.0561    1.9921   54.1172 H       1  ZINC001082278299    0.0800
     50 H50       -10.6021    3.0008   52.7231 H       1  ZINC001082278299    0.0800
     51 H51        -7.0575   -1.2209   63.5651 H       1  ZINC001082278299    0.1300
     52 H52        -7.4923    0.6991   65.1652 H       1  ZINC001082278299    0.1000
     53 H53        -8.5204    1.5352   63.8825 H       1  ZINC001082278299    0.1000
     54 H54       -10.0874   -0.4589   63.8385 H       1  ZINC001082278299    0.0900
     55 H55        -9.0593   -1.2950   65.1212 H       1  ZINC001082278299    0.1000
@<TRIPOS>BOND
     1     1     2    1
     2     1    27    1
     3     1    28    1
     4     1    29    1
     5     2     3    2
     6     2    24    1
     7     3     4    1
     8     3    30    1
     9     4     5    2
    10     4     6   am
    11     6     7    1
    12     6    31    1
    13     7     8    1
    14     7    32    1
    15     7    33    1
    16     8     9    1
    17     8    14    1
    18     8    10    1
    19    10    11    1
    20    10    34    1
    21    10    35    1
    22    11    12    1
    23    11    36    1
    24    11    37    1
    25    12    13    1
    26    12    38    1
    27    12    39    1
    28    13    14    1
    29    13    40    1
    30    13    41    1
    31    14    15   am
    32    15    16    2
    33    15    17    1
    34    17    18    1
    35    17    42    1
    36    17    43    1
    37    18    23    1
    38    18    19    2
    39    19    20    1
    40    19    44    1
    41    20    21    1
    42    20    45    1
    43    20    46    1
    44    21    22    1
    45    22    23    1
    46    22    47    1
    47    22    48    1
    48    23    49    1
    49    23    50    1
    50    24    26    1
    51    24    25    1
    52    24    51    1
    53    25    26    1
    54    25    52    1
    55    25    53    1
    56    26    54    1
    57    26    55    1
@<TRIPOS>SUBSTRUCTURE
     1 ZINC001082278299        1 TEMP              0 ****  ****    0 ROOT


##########                                Name:    ZINC000123469372
##########                DOCK_Rotatable_Bonds:                   7
##########                         Heavy_Atoms:                  25
##########                    Molecular_Weight:             341.382
##########                DOCK_Rotatable_Bonds:                   7
##########                       Formal_Charge:          -0.0300001
##########                     HBond_Acceptors:                   5
##########                        HBond_Donors:                   2
##########                         Heavy_Atoms:                  25
##########                          Grid_Score:          -28.478231
##########                     Grid_vdw_energy:          -26.771063
##########                      Grid_es_energy:           -1.707169
##########           Internal_energy_repulsive:           10.213510

@<TRIPOS>MOLECULE
ZINC000123469372
 45 47 1 0 0
SMALL
USER_CHARGES


@<TRIPOS>ATOM
      1 C1         -5.4464    3.1816   54.2277 C.3     1  ZINC000123469372   -0.1700
      2 C2         -4.2632    4.1517   54.2143 C.3     1  ZINC000123469372    0.1500
      3 H3         -4.6273    5.1707   54.3454 H       1  ZINC000123469372    0.0900
      4 C4         -3.3043    3.8021   55.3541 C.3     1  ZINC000123469372   -0.1600
      5 C5         -2.5604    2.5087   55.0160 C.3     1  ZINC000123469372    0.1500
      6 H6         -2.8702    2.1580   54.0315 H       1  ZINC000123469372    0.1100
      7 O7         -2.8666    1.5132   55.9944 O.3     1  ZINC000123469372   -0.5500
      8 C8         -1.0760    2.7692   55.0122 C.ar    1  ZINC000123469372   -0.1200
      9 C9         -0.3671    2.7457   56.1987 C.ar    1  ZINC000123469372   -0.1100
     10 C10         0.9945    2.9846   56.1952 C.ar    1  ZINC000123469372   -0.1200
     11 C11         1.6472    3.2467   55.0051 C.ar    1  ZINC000123469372   -0.1200
     12 C12         0.9384    3.2693   53.8185 C.ar    1  ZINC000123469372   -0.1200
     13 C13        -0.4224    3.0261   53.8214 C.ar    1  ZINC000123469372   -0.1100
     14 N14        -3.5593    4.0456   52.9339 N.am    1  ZINC000123469372   -0.7100
     15 C15        -3.7767    4.9596   51.9677 C.2     1  ZINC000123469372    0.5700
     16 O16        -4.5590    5.8725   52.1582 O.2     1  ZINC000123469372   -0.5400
     17 C17        -3.0727    4.8547   50.6901 C.2     1  ZINC000123469372   -0.2200
     18 C18        -2.9006    3.6439   50.1047 C.2     1  ZINC000123469372    0.0000
     19 C19        -2.1677    3.5940   48.8301 C.ar    1  ZINC000123469372   -0.1200
     20 C20        -2.2257    2.4750   48.0006 C.ar    1  ZINC000123469372   -0.0900
     21 C21        -1.5204    2.4718   46.8123 C.ar    1  ZINC000123469372    0.0700
     22 F22        -1.5718    1.3914   46.0027 F       1  ZINC000123469372   -0.1400
     23 C23        -0.7603    3.5730   46.4466 C.ar    1  ZINC000123469372   -0.1100
     24 C24        -0.6966    4.6871   47.2634 C.ar    1  ZINC000123469372   -0.1200
     25 C25        -1.3962    4.7081   48.4561 C.ar    1  ZINC000123469372    0.1300
     26 O26        -1.3534    5.7855   49.2787 O.3     1  ZINC000123469372   -0.3000
     27 C27        -2.5408    6.0925   50.0157 C.3     1  ZINC000123469372    0.1100
     28 H28        -5.9702    3.2605   55.1804 H       1  ZINC000123469372    0.0700
     29 H29        -6.1296    3.4306   53.4157 H       1  ZINC000123469372    0.0600
     30 H30        -5.0823    2.1626   54.0966 H       1  ZINC000123469372    0.0600
     31 H31        -2.5856    4.6110   55.4852 H       1  ZINC000123469372    0.0900
     32 H32        -3.8698    3.6657   56.2758 H       1  ZINC000123469372    0.0800
     33 H33        -2.3061    0.7268   55.9441 H       1  ZINC000123469372    0.3700
     34 H34        -0.8770    2.5409   57.1284 H       1  ZINC000123469372    0.1200
     35 H35         1.5482    2.9670   57.1223 H       1  ZINC000123469372    0.1200
     36 H36         2.7108    3.4342   55.0025 H       1  ZINC000123469372    0.1200
     37 H37         1.4483    3.4744   52.8888 H       1  ZINC000123469372    0.1200
     38 H38        -0.9761    3.0437   52.8944 H       1  ZINC000123469372    0.1200
     39 H39        -2.9368    3.3174   52.7815 H       1  ZINC000123469372    0.4000
     40 H40        -3.2890    2.7447   50.5598 H       1  ZINC000123469372    0.1500
     41 H41        -2.8171    1.6171   48.2847 H       1  ZINC000123469372    0.1500
     42 H42        -0.2130    3.5600   45.5157 H       1  ZINC000123469372    0.1500
     43 H43        -0.1015    5.5393   46.9703 H       1  ZINC000123469372    0.1500
     44 H44        -3.2935    6.4921   49.3362 H       1  ZINC000123469372    0.0800
     45 H45        -2.3107    6.8409   50.7741 H       1  ZINC000123469372    0.1100
@<TRIPOS>BOND
     1     1     2    1
     2     1    28    1
     3     1    29    1
     4     1    30    1
     5     2     3    1
     6     2     4    1
     7     2    14    1
     8     4     5    1
     9     4    31    1
    10     4    32    1
    11     5     6    1
    12     5     7    1
    13     5     8    1
    14     7    33    1
    15     8    13   ar
    16     8     9   ar
    17     9    10   ar
    18     9    34    1
    19    10    11   ar
    20    10    35    1
    21    11    12   ar
    22    11    36    1
    23    12    13   ar
    24    12    37    1
    25    13    38    1
    26    14    15   am
    27    14    39    1
    28    15    16    2
    29    15    17    1
    30    17    27    1
    31    17    18    2
    32    18    19    1
    33    18    40    1
    34    19    25   ar
    35    19    20   ar
    36    20    21   ar
    37    20    41    1
    38    21    22    1
    39    21    23   ar
    40    23    24   ar
    41    23    42    1
    42    24    25   ar
    43    24    43    1
    44    25    26    1
    45    26    27    1
    46    27    44    1
    47    27    45    1
@<TRIPOS>SUBSTRUCTURE
     1 ZINC000123469372        1 TEMP              0 ****  ****    0 ROOT


##########                                Name:    ZINC001199210165
##########                DOCK_Rotatable_Bonds:                   5
##########                         Heavy_Atoms:                  23
##########                    Molecular_Weight:             375.225
##########                DOCK_Rotatable_Bonds:                   5
##########                       Formal_Charge:         -0.00999999
##########                     HBond_Acceptors:                   6
##########                        HBond_Donors:                   2
##########                         Heavy_Atoms:                  23
##########                          Grid_Score:          -28.459270
##########                     Grid_vdw_energy:          -26.764318
##########                      Grid_es_energy:           -1.694952
##########           Internal_energy_repulsive:            7.204289

@<TRIPOS>MOLECULE
ZINC001199210165
 38 40 1 0 0
SMALL
USER_CHARGES


@<TRIPOS>ATOM
      1 C1         -5.4142    2.1950   56.5868 C.3     1  ZINC001199210165   -0.1700
      2 C2         -4.8950    3.3693   55.7547 C.3     1  ZINC001199210165    0.0800
      3 C3         -3.5933    3.8914   56.3660 C.3     1  ZINC001199210165   -0.1500
      4 O4         -4.6513    2.9335   54.4157 O.3     1  ZINC001199210165   -0.3000
      5 C5         -4.4059    3.8947   53.4901 C.ar    1  ZINC001199210165    0.3300
      6 C6         -3.7052    3.5727   52.3356 C.ar    1  ZINC001199210165   -0.1300
      7 C7         -3.4605    4.5728   51.3924 C.ar    1  ZINC001199210165   -0.0600
      8 C8         -2.7177    4.2770   50.1455 C.2     1  ZINC001199210165    0.5700
      9 O9         -2.2974    5.1868   49.4582 O.2     1  ZINC001199210165   -0.4900
     10 N10        -2.5081    2.9988   49.7731 N.am    1  ZINC001199210165   -0.6600
     11 C11        -1.8071    2.7195   48.5961 C.ar    1  ZINC001199210165    0.2000
     12 C12        -0.4554    3.0539   48.4994 C.ar    1  ZINC001199210165   -0.1500
     13 C13         0.2444    2.7888   47.3598 C.ar    1  ZINC001199210165   -0.0200
     14 C14        -0.3947    2.1763   46.2758 C.ar    1  ZINC001199210165   -0.1700
     15 C15         0.0428    1.7627   44.9455 C.2     1  ZINC001199210165    0.0900
     16 Br16        1.7842    1.9572   44.2345 Br      1  ZINC001199210165    0.0600
     17 N17        -0.9808    1.2352   44.3360 N.2     1  ZINC001199210165   -0.2100
     18 N18        -2.1027    1.2608   45.1708 N.pl3   1  ZINC001199210165   -0.4900
     19 C19        -1.7587    1.8362   46.3665 C.ar    1  ZINC001199210165    0.1500
     20 C20        -2.4566    2.1091   47.5389 C.ar    1  ZINC001199210165   -0.1700
     21 C21        -3.9363    5.8621   51.6567 C.ar    1  ZINC001199210165   -0.1900
     22 C22        -4.6244    6.0970   52.8297 C.ar    1  ZINC001199210165    0.1400
     23 N23        -4.8415    5.1260   53.6954 N.ar    1  ZINC001199210165   -0.5200
     24 H24        -4.6708    1.3979   56.5938 H       1  ZINC001199210165    0.0600
     25 H25        -5.6002    2.5274   57.6080 H       1  ZINC001199210165    0.0700
     26 H26        -6.3416    1.8230   56.1512 H       1  ZINC001199210165    0.0600
     27 H27        -5.6384    4.1664   55.7477 H       1  ZINC001199210165    0.0900
     28 H28        -2.8498    3.0942   56.3731 H       1  ZINC001199210165    0.0700
     29 H29        -3.2233    4.7280   55.7732 H       1  ZINC001199210165    0.0600
     30 H30        -3.7792    4.2238   57.3873 H       1  ZINC001199210165    0.0800
     31 H31        -3.3545    2.5647   52.1698 H       1  ZINC001199210165    0.1600
     32 H32        -2.8436    2.2725   50.3217 H       1  ZINC001199210165    0.4100
     33 H33         0.0403    3.5269   49.3342 H       1  ZINC001199210165    0.1500
     34 H34         1.2900    3.0512   47.2935 H       1  ZINC001199210165    0.1400
     35 H35        -2.9831    0.9249   44.9405 H       1  ZINC001199210165    0.4500
     36 H36        -3.5014    1.8482   47.6217 H       1  ZINC001199210165    0.1400
     37 H37        -3.7670    6.6628   50.9520 H       1  ZINC001199210165    0.1400
     38 H38        -4.9940    7.0897   53.0401 H       1  ZINC001199210165    0.1700
@<TRIPOS>BOND
     1     1     2    1
     2     1    24    1
     3     1    25    1
     4     1    26    1
     5     2     3    1
     6     2     4    1
     7     2    27    1
     8     3    28    1
     9     3    29    1
    10     3    30    1
    11     4     5    1
    12     5    23   ar
    13     5     6   ar
    14     6     7   ar
    15     6    31    1
    16     7     8    1
    17     7    21   ar
    18     8     9    2
    19     8    10   am
    20    10    11    1
    21    10    32    1
    22    11    20   ar
    23    11    12   ar
    24    12    13   ar
    25    12    33    1
    26    13    14   ar
    27    13    34    1
    28    14    19   ar
    29    14    15    1
    30    15    16    1
    31    15    17    2
    32    17    18    1
    33    18    19    1
    34    18    35    1
    35    19    20   ar
    36    20    36    1
    37    21    22   ar
    38    21    37    1
    39    22    23   ar
    40    22    38    1
@<TRIPOS>SUBSTRUCTURE
     1 ZINC001199210165        1 TEMP              0 ****  ****    0 ROOT


##########                                Name:    ZINC000599228306
##########                DOCK_Rotatable_Bonds:                   8
##########                         Heavy_Atoms:                  25
##########                    Molecular_Weight:             379.382
##########                DOCK_Rotatable_Bonds:                   8
##########                       Formal_Charge:        -4.09782e-08
##########                     HBond_Acceptors:                  10
##########                        HBond_Donors:                   1
##########                         Heavy_Atoms:                  25
##########                          Grid_Score:          -28.427162
##########                     Grid_vdw_energy:          -27.699409
##########                      Grid_es_energy:           -0.727752
##########           Internal_energy_repulsive:           19.293556

@<TRIPOS>MOLECULE
ZINC000599228306
 44 44 1 0 0
SMALL
USER_CHARGES


@<TRIPOS>ATOM
      1 C1          1.9831    1.3573   56.3524 C.3     1  ZINC000599228306    0.0400
      2 O2          1.1091    1.9811   55.3751 O.3     1  ZINC000599228306   -0.3500
      3 C3          0.0348    2.6419   55.8489 C.2     1  ZINC000599228306    0.5100
      4 O4         -0.0133    2.9627   57.0198 O.2     1  ZINC000599228306   -0.4800
      5 C5         -1.0835    2.9760   54.9458 C.ar    1  ZINC000599228306   -0.1500
      6 C6         -2.3663    2.4896   55.2077 C.ar    1  ZINC000599228306   -0.0100
      7 C7         -3.4080    2.8062   54.3583 C.ar    1  ZINC000599228306    0.0700
      8 F8         -4.6494    2.3365   54.6103 F       1  ZINC000599228306   -0.1200
      9 C9         -3.1834    3.6051   53.2479 C.ar    1  ZINC000599228306    0.0100
     10 C10        -1.9165    4.0903   52.9819 C.ar    1  ZINC000599228306   -0.7100
     11 S11        -1.6431    5.1054   51.5678 S.o2    1  ZINC000599228306    2.7000
     12 O12        -2.9241    5.3802   51.0176 O.2     1  ZINC000599228306   -0.9200
     13 O13        -0.7367    6.1221   51.9728 O.2     1  ZINC000599228306   -0.9300
     14 N14        -0.8421    4.1830   50.4498 N.am    1  ZINC000599228306   -1.1000
     15 C15        -1.4572    2.9569   49.9356 C.3     1  ZINC000599228306    0.1600
     16 H16        -2.1382    2.5508   50.6837 H       1  ZINC000599228306    0.1300
     17 C17        -2.2346    3.2739   48.6567 C.3     1  ZINC000599228306   -0.1700
     18 C18        -0.3826    1.9447   49.6326 C.2     1  ZINC000599228306    0.4700
     19 O19         0.7812    2.2650   49.6853 O.2     1  ZINC000599228306   -0.4900
     20 O20        -0.7184    0.6874   49.3040 O.3     1  ZINC000599228306   -0.3400
     21 C21        -0.1649    0.1582   48.0703 C.3     1  ZINC000599228306    0.1200
     22 C22         1.2273   -0.4158   48.3409 C.3     1  ZINC000599228306   -0.1900
     23 C23        -1.0771   -0.9472   47.5348 C.3     1  ZINC000599228306   -0.1400
     24 C24        -0.0616    1.2802   47.0351 C.3     1  ZINC000599228306   -0.1800
     25 C25        -0.8649    3.7860   53.8264 C.ar    1  ZINC000599228306    0.2500
     26 F26         0.3725    4.2613   53.5654 F       1  ZINC000599228306   -0.0900
     27 H27         2.8062    0.8605   55.8388 H       1  ZINC000599228306    0.1100
     28 H28         2.3803    2.1190   57.0233 H       1  ZINC000599228306    0.0700
     29 H29         1.4189    0.6240   56.9287 H       1  ZINC000599228306    0.0700
     30 H30        -2.5431    1.8671   56.0724 H       1  ZINC000599228306    0.1700
     31 H31        -4.0019    3.8494   52.5871 H       1  ZINC000599228306    0.1800
     32 H32         0.0344    4.4546   50.1354 H       1  ZINC000599228306    0.4300
     33 H33        -2.6923    2.3615   48.2741 H       1  ZINC000599228306    0.0900
     34 H34        -3.0119    4.0059   48.8759 H       1  ZINC000599228306    0.0700
     35 H35        -1.5535    3.6799   47.9087 H       1  ZINC000599228306    0.0800
     36 H36         1.1537   -1.2151   49.0783 H       1  ZINC000599228306    0.0600
     37 H37         1.6429   -0.8129   47.4147 H       1  ZINC000599228306    0.0700
     38 H38         1.8772    0.3718   48.7223 H       1  ZINC000599228306    0.0800
     39 H39        -2.0689   -0.5383   47.3421 H       1  ZINC000599228306    0.0700
     40 H40        -0.6616   -1.3444   46.6087 H       1  ZINC000599228306    0.0800
     41 H41        -1.1507   -1.7466   48.2723 H       1  ZINC000599228306    0.0700
     42 H42         0.5883    2.0677   47.4166 H       1  ZINC000599228306    0.0800
     43 H43         0.3539    0.8830   46.1090 H       1  ZINC000599228306    0.0700
     44 H44        -1.0534    1.6891   46.8424 H       1  ZINC000599228306    0.0600
@<TRIPOS>BOND
     1     1     2    1
     2     1    27    1
     3     1    28    1
     4     1    29    1
     5     2     3    1
     6     3     4    2
     7     3     5    1
     8     5    25   ar
     9     5     6   ar
    10     6     7   ar
    11     6    30    1
    12     7     8    1
    13     7     9   ar
    14     9    10   ar
    15     9    31    1
    16    10    11    1
    17    10    25   ar
    18    11    12    2
    19    11    13    2
    20    11    14   am
    21    14    15    1
    22    14    32    1
    23    15    16    1
    24    15    17    1
    25    15    18    1
    26    17    33    1
    27    17    34    1
    28    17    35    1
    29    18    19    2
    30    18    20    1
    31    20    21    1
    32    21    22    1
    33    21    23    1
    34    21    24    1
    35    22    36    1
    36    22    37    1
    37    22    38    1
    38    23    39    1
    39    23    40    1
    40    23    41    1
    41    24    42    1
    42    24    43    1
    43    24    44    1
    44    25    26    1
@<TRIPOS>SUBSTRUCTURE
     1 ZINC000599228306        1 TEMP              0 ****  ****    0 ROOT


##########                                Name:    ZINC000616491533
##########                DOCK_Rotatable_Bonds:                   4
##########                         Heavy_Atoms:                  27
##########                    Molecular_Weight:             375.418
##########                DOCK_Rotatable_Bonds:                   4
##########                       Formal_Charge:           0.0299996
##########                     HBond_Acceptors:                   7
##########                        HBond_Donors:                   0
##########                         Heavy_Atoms:                  27
##########                          Grid_Score:          -28.420334
##########                     Grid_vdw_energy:          -28.481726
##########                      Grid_es_energy:            0.061393
##########           Internal_energy_repulsive:           15.890456

@<TRIPOS>MOLECULE
ZINC000616491533
 50 53 1 0 0
SMALL
USER_CHARGES


@<TRIPOS>ATOM
      1 C1         -0.4825    3.6469   45.6867 C.3     1  ZINC000616491533   -0.1700
      2 C2         -1.6074    2.8494   46.3496 C.3     1  ZINC000616491533    0.1400
      3 H3         -2.5745    3.2488   46.0442 H       1  ZINC000616491533    0.0800
      4 C4         -1.5032    1.3613   45.9484 C.3     1  ZINC000616491533   -0.1200
      5 C5         -0.7730    0.7311   47.1527 C.3     1  ZINC000616491533   -0.0700
      6 C6         -1.3168    1.5487   48.3398 C.3     1  ZINC000616491533    0.0900
      7 N7         -1.4762    2.9213   47.8128 N.am    1  ZINC000616491533   -0.6100
      8 C8         -1.4945    4.0485   48.5514 C.2     1  ZINC000616491533    0.6100
      9 O9         -1.6290    5.1287   48.0090 O.2     1  ZINC000616491533   -0.5200
     10 C10        -1.3516    3.9723   50.0166 C.2     1  ZINC000616491533   -0.2400
     11 C11        -0.1664    3.9415   50.7239 C.2     1  ZINC000616491533    0.0700
     12 C12         1.2224    3.9794   50.1402 C.3     1  ZINC000616491533    0.3400
     13 F13         1.6263    5.3097   49.9834 F       1  ZINC000616491533   -0.1900
     14 F14         2.1079    3.3216   51.0006 F       1  ZINC000616491533   -0.1600
     15 N15        -0.4798    3.8719   52.0305 N.pl3   1  ZINC000616491533   -0.2900
     16 C16         0.4352    3.8213   53.0909 C.ar    1  ZINC000616491533    0.1300
     17 C17         1.4748    4.7393   53.1571 C.ar    1  ZINC000616491533   -0.1000
     18 C18         2.3749    4.6870   54.2033 C.ar    1  ZINC000616491533   -0.1000
     19 C19         2.2418    3.7213   55.1841 C.ar    1  ZINC000616491533   -0.1000
     20 C20         1.2076    2.8056   55.1209 C.ar    1  ZINC000616491533   -0.1000
     21 C21         0.3006    2.8568   54.0806 C.ar    1  ZINC000616491533   -0.0900
     22 N22        -1.8739    3.8585   52.1516 N.2     1  ZINC000616491533   -0.2600
     23 C23        -2.4024    3.9231   50.9604 C.2     1  ZINC000616491533    0.0700
     24 C24        -1.1426   -0.7382   47.2959 C.3     1  ZINC000616491533   -0.1400
     25 C25        -0.3660   -1.3424   48.4710 C.3     1  ZINC000616491533    0.0600
     26 O26         1.0338   -1.1407   48.2652 O.3     1  ZINC000616491533   -0.3800
     27 C27         1.4274    0.2320   48.2074 C.3     1  ZINC000616491533    0.0600
     28 C28         0.7326    0.9085   47.0204 C.3     1  ZINC000616491533   -0.1500
     29 H29         0.4811    3.2503   46.0061 H       1  ZINC000616491533    0.0600
     30 H30        -0.5683    3.5643   44.6032 H       1  ZINC000616491533    0.0600
     31 H31        -0.5592    4.6944   45.9783 H       1  ZINC000616491533    0.0800
     32 H32        -2.4942    0.9243   45.8261 H       1  ZINC000616491533    0.0800
     33 H33        -0.9150    1.2474   45.0378 H       1  ZINC000616491533    0.0900
     34 H34        -2.2798    1.1537   48.6634 H       1  ZINC000616491533    0.0800
     35 H35        -0.6049    1.5391   49.1652 H       1  ZINC000616491533    0.0800
     36 H36         1.2224    3.4829   49.1698 H       1  ZINC000616491533    0.1400
     37 H37         1.5797    5.4933   52.3910 H       1  ZINC000616491533    0.1300
     38 H38         3.1838    5.4007   54.2553 H       1  ZINC000616491533    0.1400
     39 H39         2.9474    3.6819   56.0008 H       1  ZINC000616491533    0.1300
     40 H40         1.1061    2.0526   55.8884 H       1  ZINC000616491533    0.1400
     41 H41        -0.5071    2.1413   54.0317 H       1  ZINC000616491533    0.1300
     42 H42        -3.4585    3.9314   50.7348 H       1  ZINC000616491533    0.2100
     43 H43        -2.2128   -0.8278   47.4823 H       1  ZINC000616491533    0.0800
     44 H44        -0.8865   -1.2690   46.3789 H       1  ZINC000616491533    0.0800
     45 H45        -0.6714   -0.8561   49.3975 H       1  ZINC000616491533    0.0500
     46 H46        -0.5744   -2.4105   48.5342 H       1  ZINC000616491533    0.1000
     47 H47         1.1385    0.7326   49.1315 H       1  ZINC000616491533    0.0500
     48 H48         2.5081    0.2957   48.0809 H       1  ZINC000616491533    0.1000
     49 H49         1.0727    0.4516   46.0910 H       1  ZINC000616491533    0.0800
     50 H50         0.9748    1.9712   47.0142 H       1  ZINC000616491533    0.0800
@<TRIPOS>BOND
     1     1     2    1
     2     1    29    1
     3     1    30    1
     4     1    31    1
     5     2     3    1
     6     2     7    1
     7     2     4    1
     8     4     5    1
     9     4    32    1
    10     4    33    1
    11     5    28    1
    12     5     6    1
    13     5    24    1
    14     6     7    1
    15     6    34    1
    16     6    35    1
    17     7     8   am
    18     8     9    2
    19     8    10    1
    20    10    23    1
    21    10    11    2
    22    11    12    1
    23    11    15    1
    24    12    13    1
    25    12    14    1
    26    12    36    1
    27    15    16    1
    28    15    22    1
    29    16    21   ar
    30    16    17   ar
    31    17    18   ar
    32    17    37    1
    33    18    19   ar
    34    18    38    1
    35    19    20   ar
    36    19    39    1
    37    20    21   ar
    38    20    40    1
    39    21    41    1
    40    22    23    2
    41    23    42    1
    42    24    25    1
    43    24    43    1
    44    24    44    1
    45    25    26    1
    46    25    45    1
    47    25    46    1
    48    26    27    1
    49    27    28    1
    50    27    47    1
    51    27    48    1
    52    28    49    1
    53    28    50    1
@<TRIPOS>SUBSTRUCTURE
     1 ZINC000616491533        1 TEMP              0 ****  ****    0 ROOT


##########                                Name:    ZINC001356153960
##########                DOCK_Rotatable_Bonds:                   8
##########                         Heavy_Atoms:                  24
##########                    Molecular_Weight:             334.366
##########                DOCK_Rotatable_Bonds:                   8
##########                       Formal_Charge:           0.0100003
##########                     HBond_Acceptors:                   6
##########                        HBond_Donors:                   1
##########                         Heavy_Atoms:                  24
##########                          Grid_Score:          -28.407433
##########                     Grid_vdw_energy:          -27.509262
##########                      Grid_es_energy:           -0.898170
##########           Internal_energy_repulsive:           12.231285

@<TRIPOS>MOLECULE
ZINC001356153960
 44 46 1 0 0
SMALL
USER_CHARGES


@<TRIPOS>ATOM
      1 O1          0.9811    4.3625   49.6621 O.2     1  ZINC001356153960   -0.5200
      2 C2          0.8642    3.3441   50.3116 C.2     1  ZINC001356153960    0.5100
      3 N3          1.5033    3.2205   51.4918 N.am    1  ZINC001356153960   -0.7000
      4 C4          2.3340    4.3180   51.9934 C.3     1  ZINC001356153960    0.1300
      5 C5          2.6289    4.0970   53.4784 C.3     1  ZINC001356153960   -0.0800
      6 H6          2.9998    5.0161   53.9319 H       1  ZINC001356153960    0.0900
      7 C7          1.3879    3.6193   54.1960 C.2     1  ZINC001356153960   -0.1700
      8 C8          1.6615    2.6264   54.9978 C.2     1  ZINC001356153960   -0.1600
      9 C9          3.1306    2.2763   54.9485 C.3     1  ZINC001356153960   -0.1000
     10 C10         3.6552    2.9547   53.6596 C.3     1  ZINC001356153960   -0.1200
     11 C11         0.0168    2.2245   49.8000 C.2     1  ZINC001356153960    0.5100
     12 O12         0.5319    1.1786   49.4632 O.2     1  ZINC001356153960   -0.5100
     13 N13        -1.3195    2.3764   49.7126 N.am    1  ZINC001356153960   -0.5500
     14 C14        -2.1503    1.2789   49.2111 C.3     1  ZINC001356153960    0.1300
     15 C15        -1.9107    1.1020   47.7339 C.ar    1  ZINC001356153960   -0.1600
     16 C16        -2.2078    2.1287   46.8580 C.ar    1  ZINC001356153960   -0.0300
     17 C17        -1.9832    1.9698   45.5034 C.ar    1  ZINC001356153960   -0.1700
     18 C18        -1.4708    0.7774   45.0212 C.ar    1  ZINC001356153960    0.1400
     19 F19        -1.2562    0.6205   43.6967 F       1  ZINC001356153960   -0.1300
     20 C20        -1.1781   -0.2541   45.8972 C.ar    1  ZINC001356153960   -0.2000
     21 C21        -1.3981   -0.0918   47.2539 C.ar    1  ZINC001356153960    0.1500
     22 F22        -1.1132   -1.0975   48.1097 F       1  ZINC001356153960   -0.1200
     23 C23        -1.9414    3.6391   50.1193 C.3     1  ZINC001356153960    0.0700
     24 C24        -1.8453    4.0306   51.5953 C.3     1  ZINC001356153960   -0.1900
     25 C25        -3.1808    3.5605   51.0130 C.3     1  ZINC001356153960   -0.1800
     26 H26         1.4132    2.4050   52.0090 H       1  ZINC001356153960    0.4100
     27 H27         3.2711    4.3479   51.4374 H       1  ZINC001356153960    0.0800
     28 H28         1.8050    5.2624   51.8646 H       1  ZINC001356153960    0.0800
     29 H29         0.4037    4.0436   54.0627 H       1  ZINC001356153960    0.1200
     30 H30         0.9335    2.1211   55.6150 H       1  ZINC001356153960    0.1300
     31 H31         3.6456    2.6754   55.8223 H       1  ZINC001356153960    0.0800
     32 H32         3.2617    1.1956   54.8922 H       1  ZINC001356153960    0.0700
     33 H33         3.6265    2.2654   52.8156 H       1  ZINC001356153960    0.0800
     34 H34         4.6602    3.3509   53.8050 H       1  ZINC001356153960    0.0800
     35 H35        -1.8909    0.3586   49.7341 H       1  ZINC001356153960    0.0900
     36 H36        -3.2014    1.5109   49.3834 H       1  ZINC001356153960    0.1400
     37 H37        -2.6120    3.0575   47.2327 H       1  ZINC001356153960    0.1600
     38 H38        -2.2120    2.7744   44.8203 H       1  ZINC001356153960    0.1400
     39 H39        -0.7787   -1.1846   45.5220 H       1  ZINC001356153960    0.1500
     40 H40        -1.9024    4.4412   49.3823 H       1  ZINC001356153960    0.1400
     41 H41        -1.3195    3.3488   52.2637 H       1  ZINC001356153960    0.1400
     42 H42        -1.7436    5.0903   51.8292 H       1  ZINC001356153960    0.0900
     43 H43        -3.9569    4.3111   50.8642 H       1  ZINC001356153960    0.1000
     44 H44        -3.5334    2.5693   51.2984 H       1  ZINC001356153960    0.0900
@<TRIPOS>BOND
     1     1     2    2
     2     2     3   am
     3     2    11    1
     4     3     4    1
     5     3    26    1
     6     4     5    1
     7     4    27    1
     8     4    28    1
     9     5     6    1
    10     5    10    1
    11     5     7    1
    12     7     8    2
    13     7    29    1
    14     8     9    1
    15     8    30    1
    16     9    10    1
    17     9    31    1
    18     9    32    1
    19    10    33    1
    20    10    34    1
    21    11    12    2
    22    11    13   am
    23    13    14    1
    24    13    23    1
    25    14    15    1
    26    14    35    1
    27    14    36    1
    28    15    21   ar
    29    15    16   ar
    30    16    17   ar
    31    16    37    1
    32    17    18   ar
    33    17    38    1
    34    18    19    1
    35    18    20   ar
    36    20    21   ar
    37    20    39    1
    38    21    22    1
    39    23    25    1
    40    23    24    1
    41    23    40    1
    42    24    25    1
    43    24    41    1
    44    24    42    1
    45    25    43    1
    46    25    44    1
@<TRIPOS>SUBSTRUCTURE
     1 ZINC001356153960        1 TEMP              0 ****  ****    0 ROOT


##########                                Name:    ZINC000516003207
##########                DOCK_Rotatable_Bonds:                   5
##########                         Heavy_Atoms:                  24
##########                    Molecular_Weight:             342.462
##########                DOCK_Rotatable_Bonds:                   5
##########                       Formal_Charge:          -0.0200001
##########                     HBond_Acceptors:                   5
##########                        HBond_Donors:                   1
##########                         Heavy_Atoms:                  24
##########                          Grid_Score:          -28.383545
##########                     Grid_vdw_energy:          -29.028807
##########                      Grid_es_energy:            0.645262
##########           Internal_energy_repulsive:           10.337998

@<TRIPOS>MOLECULE
ZINC000516003207
 46 49 1 0 0
SMALL
USER_CHARGES


@<TRIPOS>ATOM
      1 C1         -0.3346    0.3540   43.6393 C.3     1  ZINC000516003207    0.0300
      2 O2         -0.5021    0.0383   45.0229 O.3     1  ZINC000516003207   -0.3600
      3 C3          0.1772    0.9302   45.9089 C.3     1  ZINC000516003207    0.0900
      4 H4          1.2360    1.0369   45.6733 H       1  ZINC000516003207    0.0800
      5 C5         -0.5492    2.2723   46.1112 C.3     1  ZINC000516003207   -0.1700
      6 C6         -1.2899    1.6108   47.2876 C.3     1  ZINC000516003207    0.1500
      7 H7         -2.2203    1.1219   46.9994 H       1  ZINC000516003207    0.1200
      8 N8         -1.4432    2.4859   48.4526 N.am    1  ZINC000516003207   -0.7200
      9 C9         -2.4545    2.2820   49.3199 C.2     1  ZINC000516003207    0.5600
     10 O10        -3.2383    1.3712   49.1365 O.2     1  ZINC000516003207   -0.5300
     11 C11        -2.6104    3.1662   50.4948 C.ar    1  ZINC000516003207   -0.1400
     12 C12        -1.6744    4.1721   50.7428 C.ar    1  ZINC000516003207   -0.0800
     13 C13        -1.8194    4.9976   51.8400 C.ar    1  ZINC000516003207   -0.1200
     14 C14        -2.8895    4.8346   52.6976 C.ar    1  ZINC000516003207   -0.0800
     15 C15        -3.8316    3.8337   52.4605 C.ar    1  ZINC000516003207   -0.0300
     16 C16        -4.9801    3.6608   53.3835 C.2     1  ZINC000516003207    0.1100
     17 C17        -5.9233    2.7129   53.2115 C.2     1  ZINC000516003207   -0.2600
     18 S18        -7.0877    2.8639   54.5249 S.3     1  ZINC000516003207    0.1400
     19 C19        -6.2044    4.1748   55.1748 C.2     1  ZINC000516003207    0.0600
     20 C20        -6.5836    4.9328   56.4209 C.3     1  ZINC000516003207   -0.0800
     21 N21        -5.1663    4.4210   54.4530 N.2     1  ZINC000516003207   -0.4700
     22 C22        -3.6954    3.0015   51.3544 C.ar    1  ZINC000516003207   -0.0300
     23 C23        -0.0976    0.6539   47.3875 C.3     1  ZINC000516003207   -0.1100
     24 C24        -0.2708   -0.7735   47.9077 C.3     1  ZINC000516003207   -0.1200
     25 C25         1.1820   -0.6752   48.4075 C.3     1  ZINC000516003207   -0.1400
     26 C26         0.9886    0.8517   48.4455 C.3     1  ZINC000516003207   -0.1200
     27 H27         0.7243    0.3165   43.3837 H       1  ZINC000516003207    0.0400
     28 H28        -0.8805   -0.3690   43.0330 H       1  ZINC000516003207    0.0900
     29 H29        -0.7200    1.3550   43.4458 H       1  ZINC000516003207    0.0400
     30 H30         0.1118    3.0847   46.4136 H       1  ZINC000516003207    0.0900
     31 H31        -1.2024    2.5440   45.2820 H       1  ZINC000516003207    0.0800
     32 H32        -0.8170    3.2119   48.5997 H       1  ZINC000516003207    0.4000
     33 H33        -0.8355    4.3044   50.0756 H       1  ZINC000516003207    0.1300
     34 H34        -1.0926    5.7740   52.0284 H       1  ZINC000516003207    0.1400
     35 H35        -2.9969    5.4834   53.5543 H       1  ZINC000516003207    0.1300
     36 H36        -5.9588    1.9895   52.4104 H       1  ZINC000516003207    0.1800
     37 H37        -7.5011    4.5149   56.8351 H       1  ZINC000516003207    0.0800
     38 H38        -5.7823    4.8490   57.1551 H       1  ZINC000516003207    0.0900
     39 H39        -6.7417    5.9826   56.1738 H       1  ZINC000516003207    0.0900
     40 H40        -4.4225    2.2252   51.1670 H       1  ZINC000516003207    0.1500
     41 H41        -1.0042   -0.8609   48.7094 H       1  ZINC000516003207    0.0800
     42 H42        -0.4131   -1.5124   47.1191 H       1  ZINC000516003207    0.0800
     43 H43         1.3359   -1.1197   49.3906 H       1  ZINC000516003207    0.0700
     44 H44         1.9186   -1.0032   47.6739 H       1  ZINC000516003207    0.0800
     45 H45         1.8523    1.4112   48.0863 H       1  ZINC000516003207    0.0700
     46 H46         0.6092    1.2210   49.3982 H       1  ZINC000516003207    0.0900
@<TRIPOS>BOND
     1     1     2    1
     2     1    27    1
     3     1    28    1
     4     1    29    1
     5     2     3    1
     6     3     4    1
     7     3    23    1
     8     3     5    1
     9     5     6    1
    10     5    30    1
    11     5    31    1
    12     6     7    1
    13     6     8    1
    14     6    23    1
    15     8     9   am
    16     8    32    1
    17     9    10    2
    18     9    11    1
    19    11    22   ar
    20    11    12   ar
    21    12    13   ar
    22    12    33    1
    23    13    14   ar
    24    13    34    1
    25    14    15   ar
    26    14    35    1
    27    15    16    1
    28    15    22   ar
    29    16    21    1
    30    16    17    2
    31    17    18    1
    32    17    36    1
    33    18    19    1
    34    19    20    1
    35    19    21    2
    36    20    37    1
    37    20    38    1
    38    20    39    1
    39    22    40    1
    40    23    26    1
    41    23    24    1
    42    24    25    1
    43    24    41    1
    44    24    42    1
    45    25    26    1
    46    25    43    1
    47    25    44    1
    48    26    45    1
    49    26    46    1
@<TRIPOS>SUBSTRUCTURE
     1 ZINC000516003207        1 TEMP              0 ****  ****    0 ROOT


##########                                Name:    ZINC000541252362
##########                DOCK_Rotatable_Bonds:                   5
##########                         Heavy_Atoms:                  27
##########                    Molecular_Weight:             401.254
##########                DOCK_Rotatable_Bonds:                   5
##########                       Formal_Charge:          -0.0199999
##########                     HBond_Acceptors:                   9
##########                        HBond_Donors:                   1
##########                         Heavy_Atoms:                  27
##########                          Grid_Score:          -28.377607
##########                     Grid_vdw_energy:          -28.527798
##########                      Grid_es_energy:            0.150191
##########           Internal_energy_repulsive:            2.873543

@<TRIPOS>MOLECULE
ZINC000541252362
 41 44 1 0 0
SMALL
USER_CHARGES


@<TRIPOS>ATOM
      1 C1        -10.5302    0.8090   52.1616 C.3     1  ZINC000541252362    0.1000
      2 N2         -9.5338    1.3630   53.0819 N.pl3   1  ZINC000541252362   -0.3800
      3 C3         -8.5499    2.2282   52.7769 C.2     1  ZINC000541252362    0.2600
      4 N4         -7.8749    2.4823   53.8665 N.2     1  ZINC000541252362   -0.5300
      5 C5         -8.3965    1.7977   54.8932 C.2     1  ZINC000541252362    0.2700
      6 C6         -7.9029    1.8271   56.2924 C.ar    1  ZINC000541252362    0.0000
      7 C7         -6.7768    2.5796   56.6202 C.ar    1  ZINC000541252362   -0.1000
      8 C8         -6.3188    2.6063   57.9226 C.ar    1  ZINC000541252362   -0.1000
      9 C9         -6.9740    1.8881   58.9046 C.ar    1  ZINC000541252362   -0.1300
     10 C10        -8.0978    1.1351   58.5867 C.ar    1  ZINC000541252362    0.1400
     11 N11        -8.7589    0.4089   59.5837 N.am    1  ZINC000541252362   -0.6800
     12 C12        -8.3730   -0.8507   59.8681 C.2     1  ZINC000541252362    0.5100
     13 O13        -7.4529   -1.3550   59.2597 O.2     1  ZINC000541252362   -0.4900
     14 C14        -9.0848   -1.6326   60.9417 C.3     1  ZINC000541252362   -0.0600
     15 C15       -10.4906   -1.9378   60.4926 C.2     1  ZINC000541252362    0.0700
     16 C16       -11.6097   -1.3190   60.9292 C.2     1  ZINC000541252362   -0.0700
     17 N17       -12.6680   -1.8898   60.2768 N.pl3   1  ZINC000541252362   -0.3500
     18 C18       -14.0141   -1.6634   60.3252 C.2     1  ZINC000541252362    0.0700
     19 C19       -14.8608   -2.3852   59.5602 C.2     1  ZINC000541252362   -0.0500
     20 Cl20      -16.5682   -2.0809   59.6374 Cl      1  ZINC000541252362   -0.0200
     21 C21       -14.3658   -3.3814   58.7013 C.2     1  ZINC000541252362   -0.0900
     22 C22       -13.0265   -3.6167   58.6433 C.2     1  ZINC000541252362    0.0200
     23 Cl23      -12.3965   -4.8427   57.5879 Cl      1  ZINC000541252362   -0.0100
     24 C24       -12.1556   -2.8544   59.4492 C.2     1  ZINC000541252362    0.2200
     25 N25       -10.8376   -2.8608   59.5927 N.2     1  ZINC000541252362   -0.4300
     26 C26        -8.5672    1.1076   57.2823 C.ar    1  ZINC000541252362   -0.0800
     27 N27        -9.4221    1.0999   54.4568 N.2     1  ZINC000541252362   -0.3100
     28 H28       -11.4031    1.4613   52.1358 H       1  ZINC000541252362    0.0800
     29 H29       -10.1011    0.7365   51.1623 H       1  ZINC000541252362    0.0900
     30 H30       -10.8276   -0.1827   52.5023 H       1  ZINC000541252362    0.0900
     31 H31        -8.3517    2.6416   51.7990 H       1  ZINC000541252362    0.2200
     32 H32        -6.2617    3.1416   55.8552 H       1  ZINC000541252362    0.1300
     33 H33        -5.4458    3.1902   58.1746 H       1  ZINC000541252362    0.1300
     34 H34        -6.6116    1.9117   59.9216 H       1  ZINC000541252362    0.1300
     35 H35        -9.4948    0.8123   60.0702 H       1  ZINC000541252362    0.4100
     36 H36        -8.5517   -2.5654   61.1258 H       1  ZINC000541252362    0.1200
     37 H37        -9.1160   -1.0449   61.8592 H       1  ZINC000541252362    0.1200
     38 H38       -11.6593   -0.5230   61.6576 H       1  ZINC000541252362    0.1900
     39 H39       -14.4048   -0.9001   60.9819 H       1  ZINC000541252362    0.1800
     40 H40       -15.0449   -3.9578   58.0904 H       1  ZINC000541252362    0.1600
     41 H41        -9.4406    0.5234   57.0331 H       1  ZINC000541252362    0.1500
@<TRIPOS>BOND
     1     1     2    1
     2     1    28    1
     3     1    29    1
     4     1    30    1
     5     2    27    1
     6     2     3    1
     7     3     4    2
     8     3    31    1
     9     4     5    1
    10     5     6    1
    11     5    27    2
    12     6    26   ar
    13     6     7   ar
    14     7     8   ar
    15     7    32    1
    16     8     9   ar
    17     8    33    1
    18     9    10   ar
    19     9    34    1
    20    10    11    1
    21    10    26   ar
    22    11    12   am
    23    11    35    1
    24    12    13    2
    25    12    14    1
    26    14    15    1
    27    14    36    1
    28    14    37    1
    29    15    25    1
    30    15    16    2
    31    16    17    1
    32    16    38    1
    33    17    24    1
    34    17    18    1
    35    18    19    2
    36    18    39    1
    37    19    20    1
    38    19    21    1
    39    21    22    2
    40    21    40    1
    41    22    23    1
    42    22    24    1
    43    24    25    2
    44    26    41    1
@<TRIPOS>SUBSTRUCTURE
     1 ZINC000541252362        1 TEMP              0 ****  ****    0 ROOT


##########                                Name:    ZINC000277085192
##########                DOCK_Rotatable_Bonds:                   4
##########                         Heavy_Atoms:                  23
##########                    Molecular_Weight:             335.747
##########                DOCK_Rotatable_Bonds:                   4
##########                       Formal_Charge:         5.96046e-08
##########                     HBond_Acceptors:                   8
##########                        HBond_Donors:                   2
##########                         Heavy_Atoms:                  23
##########                          Grid_Score:          -28.364952
##########                     Grid_vdw_energy:          -25.003065
##########                      Grid_es_energy:           -3.361887
##########           Internal_energy_repulsive:            5.255903

@<TRIPOS>MOLECULE
ZINC000277085192
 37 39 1 0 0
SMALL
USER_CHARGES


@<TRIPOS>ATOM
      1 O1         -9.2520    3.0656   56.3567 O.2     1  ZINC000277085192   -0.5000
      2 C2         -8.5973    2.3992   55.5830 C.2     1  ZINC000277085192    0.5000
      3 C3         -8.5013    2.8037   54.1345 C.3     1  ZINC000277085192    0.1100
      4 N4         -9.0765    1.7504   53.2943 N.am    1  ZINC000277085192   -0.6000
      5 C5         -8.1961    0.9343   52.4562 C.3     1  ZINC000277085192    0.1100
      6 C6         -8.7250   -0.5008   52.4047 C.3     1  ZINC000277085192   -0.1600
      7 C7        -10.2090   -0.4728   52.1377 C.2     1  ZINC000277085192    0.5200
      8 O8        -10.7221   -1.3467   51.4723 O.2     1  ZINC000277085192   -0.5000
      9 N9        -10.9634    0.5224   52.6389 N.am    1  ZINC000277085192   -0.6700
     10 C10       -10.4034    1.5434   53.3077 C.2     1  ZINC000277085192    0.7200
     11 O11       -11.1153    2.3041   53.9336 O.2     1  ZINC000277085192   -0.5500
     12 N12        -7.9510    1.3002   56.0201 N.am    1  ZINC000277085192   -0.6700
     13 C13        -8.0401    0.9243   57.3658 C.ar    1  ZINC000277085192    0.1400
     14 C14        -8.8971   -0.0925   57.7442 C.ar    1  ZINC000277085192   -0.0400
     15 C15        -8.9873   -0.4693   59.0932 C.ar    1  ZINC000277085192   -0.1700
     16 C16        -8.2061    0.1901   60.0428 C.ar    1  ZINC000277085192   -0.0500
     17 C17        -7.3527    1.2049   59.6524 C.ar    1  ZINC000277085192   -0.0900
     18 C18        -7.2620    1.5705   58.3218 C.ar    1  ZINC000277085192   -0.0300
     19 Cl19       -6.1862    2.8468   57.8450 Cl      1  ZINC000277085192   -0.0500
     20 C20        -8.4768   -0.3889   61.4111 C.3     1  ZINC000277085192   -0.0800
     21 C21        -9.5231   -1.4940   61.2121 C.3     1  ZINC000277085192   -0.1700
     22 C22        -9.8140   -1.5066   59.7311 C.2     1  ZINC000277085192    0.4100
     23 O23       -10.5932   -2.2436   59.1651 O.2     1  ZINC000277085192   -0.4300
     24 H24        -9.0502    3.7325   53.9795 H       1  ZINC000277085192    0.1300
     25 H25        -7.4549    2.9510   53.8670 H       1  ZINC000277085192    0.1200
     26 H26        -8.1688    1.3476   51.4480 H       1  ZINC000277085192    0.0800
     27 H27        -7.1904    0.9359   52.8765 H       1  ZINC000277085192    0.1000
     28 H28        -8.2216   -1.0461   51.6063 H       1  ZINC000277085192    0.1300
     29 H29        -8.5359   -0.9931   53.3586 H       1  ZINC000277085192    0.1200
     30 H30       -11.9256    0.4998   52.5182 H       1  ZINC000277085192    0.4300
     31 H31        -7.4243    0.7695   55.4022 H       1  ZINC000277085192    0.4200
     32 H32        -9.4975   -0.5967   57.0016 H       1  ZINC000277085192    0.1500
     33 H33        -6.7501    1.7130   60.3906 H       1  ZINC000277085192    0.1500
     34 H34        -7.5615   -0.8104   61.8268 H       1  ZINC000277085192    0.1000
     35 H35        -8.8686    0.3830   62.0734 H       1  ZINC000277085192    0.1000
     36 H36        -9.1198   -2.4567   61.5260 H       1  ZINC000277085192    0.1100
     37 H37       -10.4286   -1.2619   61.7729 H       1  ZINC000277085192    0.1100
@<TRIPOS>BOND
     1     1     2    2
     2     2     3    1
     3     2    12   am
     4     3     4    1
     5     3    24    1
     6     3    25    1
     7     4    10   am
     8     4     5    1
     9     5     6    1
    10     5    26    1
    11     5    27    1
    12     6     7    1
    13     6    28    1
    14     6    29    1
    15     7     8    2
    16     7     9   am
    17     9    10   am
    18     9    30    1
    19    10    11    2
    20    12    13    1
    21    12    31    1
    22    13    18   ar
    23    13    14   ar
    24    14    15   ar
    25    14    32    1
    26    15    22    1
    27    15    16   ar
    28    16    17   ar
    29    16    20    1
    30    17    18   ar
    31    17    33    1
    32    18    19    1
    33    20    21    1
    34    20    34    1
    35    20    35    1
    36    21    22    1
    37    21    36    1
    38    21    37    1
    39    22    23    2
@<TRIPOS>SUBSTRUCTURE
     1 ZINC000277085192        1 TEMP              0 ****  ****    0 ROOT


##########                                Name:    ZINC000885154703
##########                DOCK_Rotatable_Bonds:                   5
##########                         Heavy_Atoms:                  24
##########                    Molecular_Weight:             396.259
##########                DOCK_Rotatable_Bonds:                   5
##########                       Formal_Charge:          -0.0099998
##########                     HBond_Acceptors:                   6
##########                        HBond_Donors:                   1
##########                         Heavy_Atoms:                  24
##########                          Grid_Score:          -28.356184
##########                     Grid_vdw_energy:          -27.684149
##########                      Grid_es_energy:           -0.672036
##########           Internal_energy_repulsive:            8.242685

@<TRIPOS>MOLECULE
ZINC000885154703
 43 45 1 0 0
SMALL
USER_CHARGES


@<TRIPOS>ATOM
      1 C1         -2.1268    2.4714   55.6153 C.3     1  ZINC000885154703   -0.1500
      2 C2         -0.6771    2.9599   55.6429 C.3     1  ZINC000885154703   -0.0300
      3 C3         -0.1865    3.1573   54.2318 C.2     1  ZINC000885154703    0.1700
      4 N4          1.0127    2.9156   53.7936 N.2     1  ZINC000885154703   -0.3800
      5 O5          1.0884    3.1772   52.6115 O.3     1  ZINC000885154703    0.0800
      6 C6         -0.0911    3.6241   52.1700 C.2     1  ZINC000885154703    0.1800
      7 C7         -0.4180    4.0558   50.7637 C.3     1  ZINC000885154703    0.0000
      8 H8         -0.0604    5.0712   50.5925 H       1  ZINC000885154703    0.1300
      9 C9         -1.9412    3.9857   50.5299 C.3     1  ZINC000885154703   -0.1200
     10 C10        -2.0788    3.4966   49.0666 C.3     1  ZINC000885154703   -0.1300
     11 C11        -0.9271    2.4687   48.9401 C.3     1  ZINC000885154703    0.1400
     12 H12        -1.2220    1.5108   49.3686 H       1  ZINC000885154703    0.1000
     13 N13        -0.5390    2.3038   47.5371 N.am    1  ZINC000885154703   -0.7100
     14 C14        -0.1799    1.0895   47.0756 C.2     1  ZINC000885154703    0.5700
     15 O15        -0.1767    0.1313   47.8237 O.2     1  ZINC000885154703   -0.5100
     16 C16         0.2097    0.9229   45.6607 C.ar    1  ZINC000885154703   -0.1600
     17 C17        -0.7552    0.6090   44.6986 C.ar    1  ZINC000885154703    0.1500
     18 F18        -2.0480    0.4569   45.0601 F       1  ZINC000885154703   -0.1200
     19 C19        -0.3820    0.4552   43.3756 C.ar    1  ZINC000885154703   -0.1500
     20 C20         0.9402    0.6106   43.0052 C.ar    1  ZINC000885154703   -0.0400
     21 C21         1.9006    0.9217   43.9540 C.ar    1  ZINC000885154703   -0.1100
     22 Br22        3.7064    1.1316   43.4336 Br      1  ZINC000885154703   -0.0300
     23 C23         1.5426    1.0838   45.2761 C.ar    1  ZINC000885154703    0.0100
     24 C24         2.5896    1.4226   46.3057 C.3     1  ZINC000885154703   -0.1300
     25 C25         0.2279    3.0921   49.7529 C.3     1  ZINC000885154703   -0.1300
     26 N26        -0.9111    3.6103   53.1933 N.2     1  ZINC000885154703   -0.4800
     27 H27        -2.7502    3.2119   55.1142 H       1  ZINC000885154703    0.0600
     28 H28        -2.1813    1.5258   55.0760 H       1  ZINC000885154703    0.0600
     29 H29        -2.4816    2.3286   56.6360 H       1  ZINC000885154703    0.0700
     30 H30        -0.6226    3.9055   56.1822 H       1  ZINC000885154703    0.1000
     31 H31        -0.0537    2.2194   56.1441 H       1  ZINC000885154703    0.0900
     32 H32        -2.3999    3.2727   51.2151 H       1  ZINC000885154703    0.0800
     33 H33        -2.3909    4.9717   50.6465 H       1  ZINC000885154703    0.0900
     34 H34        -3.0444    3.0163   48.9090 H       1  ZINC000885154703    0.0800
     35 H35        -1.9383    4.3220   48.3687 H       1  ZINC000885154703    0.0800
     36 H36        -0.5403    3.0685   46.9404 H       1  ZINC000885154703    0.4000
     37 H37        -1.1255    0.2127   42.6306 H       1  ZINC000885154703    0.1500
     38 H38         1.2263    0.4888   41.9709 H       1  ZINC000885154703    0.1500
     39 H39         2.6815    2.5057   46.3876 H       1  ZINC000885154703    0.0900
     40 H40         2.2975    1.0087   47.2708 H       1  ZINC000885154703    0.0800
     41 H41         3.5471    0.9986   46.0033 H       1  ZINC000885154703    0.0900
     42 H42         0.8982    3.6389   49.0898 H       1  ZINC000885154703    0.0900
     43 H43         0.7773    2.3119   50.2795 H       1  ZINC000885154703    0.0800
@<TRIPOS>BOND
     1     1     2    1
     2     1    27    1
     3     1    28    1
     4     1    29    1
     5     2     3    1
     6     2    30    1
     7     2    31    1
     8     3    26    1
     9     3     4    2
    10     4     5    1
    11     5     6    1
    12     6     7    1
    13     6    26    2
    14     7     8    1
    15     7    25    1
    16     7     9    1
    17     9    10    1
    18     9    32    1
    19     9    33    1
    20    10    11    1
    21    10    34    1
    22    10    35    1
    23    11    12    1
    24    11    13    1
    25    11    25    1
    26    13    14   am
    27    13    36    1
    28    14    15    2
    29    14    16    1
    30    16    23   ar
    31    16    17   ar
    32    17    18    1
    33    17    19   ar
    34    19    20   ar
    35    19    37    1
    36    20    21   ar
    37    20    38    1
    38    21    22    1
    39    21    23   ar
    40    23    24    1
    41    24    39    1
    42    24    40    1
    43    24    41    1
    44    25    42    1
    45    25    43    1
@<TRIPOS>SUBSTRUCTURE
     1 ZINC000885154703        1 TEMP              0 ****  ****    0 ROOT


##########                                Name:    ZINC000981048968
##########                DOCK_Rotatable_Bonds:                   7
##########                         Heavy_Atoms:                  25
##########                    Molecular_Weight:             344.414
##########                DOCK_Rotatable_Bonds:                   7
##########                       Formal_Charge:                0.02
##########                     HBond_Acceptors:                   7
##########                        HBond_Donors:                   2
##########                         Heavy_Atoms:                  25
##########                          Grid_Score:          -28.356022
##########                     Grid_vdw_energy:          -27.540289
##########                      Grid_es_energy:           -0.815733
##########           Internal_energy_repulsive:            5.198175

@<TRIPOS>MOLECULE
ZINC000981048968
 49 52 1 0 0
SMALL
USER_CHARGES


@<TRIPOS>ATOM
      1 C1         -5.8036    3.0677   54.1296 C.3     1  ZINC000981048968   -0.0800
      2 C2         -4.8383    3.6493   53.1290 C.2     1  ZINC000981048968   -0.0100
      3 C3         -4.2152    2.9625   52.1593 C.2     1  ZINC000981048968   -0.1600
      4 C4         -3.3841    3.9402   51.4418 C.2     1  ZINC000981048968   -0.2300
      5 C5         -2.5037    3.6846   50.2879 C.2     1  ZINC000981048968    0.5900
      6 O6         -1.7109    4.5336   49.9280 O.2     1  ZINC000981048968   -0.5300
      7 N7         -2.5773    2.5097   49.6313 N.am    1  ZINC000981048968   -0.7300
      8 C8         -1.7034    2.2564   48.4831 C.3     1  ZINC000981048968    0.1500
      9 H9         -1.2999    3.2008   48.1180 H       1  ZINC000981048968    0.0900
     10 C10        -2.5069    1.5808   47.3700 C.3     1  ZINC000981048968   -0.1300
     11 C11        -1.5943    1.3161   46.1709 C.3     1  ZINC000981048968   -0.1200
     12 C12        -0.4444    0.4011   46.5972 C.3     1  ZINC000981048968   -0.1100
     13 C13         0.3590    1.0767   47.7103 C.3     1  ZINC000981048968    0.1000
     14 H14         0.7624    2.0212   47.3452 H       1  ZINC000981048968    0.0500
     15 N15         1.4630    0.1982   48.1196 N.3     1  ZINC000981048968   -0.6800
     16 C16         2.7232    0.9468   48.2167 C.3     1  ZINC000981048968    0.1500
     17 C17         3.1910    1.3244   46.8349 C.2     1  ZINC000981048968    0.1800
     18 N18         3.6893    2.4701   46.4779 N.2     1  ZINC000981048968   -0.3800
     19 O19         3.9688    2.4570   45.2976 O.3     1  ZINC000981048968    0.0800
     20 C20         3.6662    1.2655   44.7736 C.2     1  ZINC000981048968    0.2100
     21 C21         3.8582    0.8403   43.3407 C.3     1  ZINC000981048968   -0.0800
     22 C22         2.6327    0.8689   42.4251 C.3     1  ZINC000981048968   -0.1600
     23 C23         3.7347    1.9177   42.2615 C.3     1  ZINC000981048968   -0.1500
     24 N24         3.1748    0.5353   45.7457 N.2     1  ZINC000981048968   -0.4600
     25 C25        -0.5536    1.3414   48.9094 C.3     1  ZINC000981048968   -0.1300
     26 C26        -3.5988    5.1336   52.0668 C.2     1  ZINC000981048968    0.0200
     27 O27        -4.4692    4.9379   53.0620 O.3     1  ZINC000981048968   -0.1700
     28 H28        -6.1575    3.8563   54.7937 H       1  ZINC000981048968    0.0800
     29 H29        -6.6511    2.6280   53.6038 H       1  ZINC000981048968    0.0900
     30 H30        -5.3003    2.2983   54.7151 H       1  ZINC000981048968    0.0900
     31 H31        -4.3054    1.9070   51.9490 H       1  ZINC000981048968    0.1600
     32 H32        -3.2088    1.8320   49.9190 H       1  ZINC000981048968    0.4000
     33 H33        -2.9103    0.6362   47.7350 H       1  ZINC000981048968    0.0700
     34 H34        -3.3260    2.2326   47.0663 H       1  ZINC000981048968    0.0700
     35 H35        -2.1667    0.8348   45.3779 H       1  ZINC000981048968    0.0700
     36 H36        -1.1908    2.2606   45.8059 H       1  ZINC000981048968    0.0600
     37 H37        -0.8479   -0.5434   46.9623 H       1  ZINC000981048968    0.0700
     38 H38         0.2058    0.2126   45.7429 H       1  ZINC000981048968    0.0700
     39 H39         1.2511   -0.2675   48.9893 H       1  ZINC000981048968    0.3500
     40 H40         2.5647    1.8499   48.8061 H       1  ZINC000981048968    0.1100
     41 H41         3.4783    0.3260   48.6989 H       1  ZINC000981048968    0.0600
     42 H42         4.5889    0.0477   43.1793 H       1  ZINC000981048968    0.1500
     43 H43         2.5570    0.0951   41.6612 H       1  ZINC000981048968    0.1200
     44 H44         1.6876    1.1953   42.8592 H       1  ZINC000981048968    0.1100
     45 H45         3.5145    2.9341   42.5879 H       1  ZINC000981048968    0.1000
     46 H46         4.3838    1.8338   41.3899 H       1  ZINC000981048968    0.1200
     47 H47         0.0188    1.8226   49.7024 H       1  ZINC000981048968    0.0700
     48 H48        -0.9570    0.3969   49.2745 H       1  ZINC000981048968    0.0800
     49 H49        -3.1454    6.0769   51.8004 H       1  ZINC000981048968    0.2100
@<TRIPOS>BOND
     1     1     2    1
     2     1    28    1
     3     1    29    1
     4     1    30    1
     5     2    27    1
     6     2     3    2
     7     3     4    1
     8     3    31    1
     9     4     5    1
    10     4    26    2
    11     5     6    2
    12     5     7   am
    13     7     8    1
    14     7    32    1
    15     8     9    1
    16     8    25    1
    17     8    10    1
    18    10    11    1
    19    10    33    1
    20    10    34    1
    21    11    12    1
    22    11    35    1
    23    11    36    1
    24    12    13    1
    25    12    37    1
    26    12    38    1
    27    13    14    1
    28    13    15    1
    29    13    25    1
    30    15    16    1
    31    15    39    1
    32    16    17    1
    33    16    40    1
    34    16    41    1
    35    17    24    1
    36    17    18    2
    37    18    19    1
    38    19    20    1
    39    20    21    1
    40    20    24    2
    41    21    23    1
    42    21    22    1
    43    21    42    1
    44    22    23    1
    45    22    43    1
    46    22    44    1
    47    23    45    1
    48    23    46    1
    49    25    47    1
    50    25    48    1
    51    26    27    1
    52    26    49    1
@<TRIPOS>SUBSTRUCTURE
     1 ZINC000981048968        1 TEMP              0 ****  ****    0 ROOT


##########                                Name:    ZINC000469459940
##########                DOCK_Rotatable_Bonds:                   7
##########                         Heavy_Atoms:                  24
##########                    Molecular_Weight:             414.295
##########                DOCK_Rotatable_Bonds:                   7
##########                       Formal_Charge:          -0.0200002
##########                     HBond_Acceptors:                   6
##########                        HBond_Donors:                   1
##########                         Heavy_Atoms:                  24
##########                          Grid_Score:          -28.354738
##########                     Grid_vdw_energy:          -27.140368
##########                      Grid_es_energy:           -1.214371
##########           Internal_energy_repulsive:            8.985694

@<TRIPOS>MOLECULE
ZINC000469459940
 41 42 1 0 0
SMALL
USER_CHARGES


@<TRIPOS>ATOM
      1 C1         -6.6609    2.9621   57.8945 C.3     1  ZINC000469459940   -0.1600
      2 C2         -5.8597    2.2445   56.8064 C.3     1  ZINC000469459940   -0.1200
      3 C3         -5.0942    3.2747   55.9735 C.3     1  ZINC000469459940   -0.1200
      4 C4         -3.9009    3.7953   56.7772 C.3     1  ZINC000469459940   -0.6000
      5 S5         -3.1621    5.2099   55.9149 S.o2    1  ZINC000469459940    2.4900
      6 O6         -4.1572    6.1704   55.5889 O.2     1  ZINC000469459940   -0.9300
      7 O7         -1.9476    5.5975   56.5425 O.2     1  ZINC000469459940   -0.9300
      8 C8         -2.6579    4.5604   54.3564 C.ar    1  ZINC000469459940   -0.6400
      9 C9         -1.3948    4.0140   54.2142 C.ar    1  ZINC000469459940   -0.0300
     10 C10        -0.9936    3.5042   52.9967 C.ar    1  ZINC000469459940   -0.0800
     11 C11        -1.8653    3.5402   51.9071 C.ar    1  ZINC000469459940   -0.0900
     12 C12        -1.4424    2.9953   50.5997 C.2     1  ZINC000469459940    0.5600
     13 O13        -0.2698    2.7490   50.3945 O.2     1  ZINC000469459940   -0.5000
     14 N14        -2.3568    2.7718   49.6352 N.am    1  ZINC000469459940   -0.6700
     15 C15        -1.9566    2.2562   48.3980 C.ar    1  ZINC000469459940    0.1900
     16 C16        -1.6970    3.1150   47.3379 C.ar    1  ZINC000469459940   -0.1500
     17 C17        -1.3018    2.6044   46.1166 C.ar    1  ZINC000469459940   -0.0400
     18 C18        -1.1646    1.2386   45.9478 C.ar    1  ZINC000469459940   -0.1500
     19 Br19       -0.6234    0.5438   44.2743 Br      1  ZINC000469459940   -0.0200
     20 C20        -1.4227    0.3782   47.0034 C.ar    1  ZINC000469459940    0.1500
     21 F21        -1.2880   -0.9556   46.8362 F       1  ZINC000469459940   -0.1200
     22 C22        -1.8127    0.8853   48.2296 C.ar    1  ZINC000469459940   -0.1500
     23 C23        -3.1385    4.0924   52.0576 C.ar    1  ZINC000469459940   -0.1100
     24 C24        -3.5290    4.5941   53.2820 C.ar    1  ZINC000469459940   -0.0300
     25 H25        -5.9806    3.5181   58.5397 H       1  ZINC000469459940    0.0600
     26 H26        -7.3667    3.6515   57.4310 H       1  ZINC000469459940    0.0600
     27 H27        -7.2063    2.2283   58.4879 H       1  ZINC000469459940    0.0600
     28 H28        -5.1539    1.5552   57.2699 H       1  ZINC000469459940    0.0700
     29 H29        -6.5400    1.6887   56.1612 H       1  ZINC000469459940    0.0700
     30 H30        -4.7379    2.8073   55.0555 H       1  ZINC000469459940    0.0800
     31 H31        -5.7553    4.1050   55.7255 H       1  ZINC000469459940    0.0800
     32 H32        -4.2372    4.1076   57.7658 H       1  ZINC000469459940    0.1400
     33 H33        -3.1584    3.0038   56.8791 H       1  ZINC000469459940    0.1400
     34 H34        -0.7213    3.9868   55.0580 H       1  ZINC000469459940    0.1500
     35 H35        -0.0071    3.0786   52.8868 H       1  ZINC000469459940    0.1500
     36 H36        -3.2924    2.9684   49.7989 H       1  ZINC000469459940    0.4200
     37 H37        -1.8044    4.1816   47.4681 H       1  ZINC000469459940    0.1500
     38 H38        -1.1000    3.2725   45.2925 H       1  ZINC000469459940    0.1500
     39 H39        -2.0138    0.2154   49.0525 H       1  ZINC000469459940    0.1600
     40 H40        -3.8176    4.1236   51.2185 H       1  ZINC000469459940    0.1400
     41 H41        -4.5137    5.0217   53.3998 H       1  ZINC000469459940    0.1500
@<TRIPOS>BOND
     1     1     2    1
     2     1    25    1
     3     1    26    1
     4     1    27    1
     5     2     3    1
     6     2    28    1
     7     2    29    1
     8     3     4    1
     9     3    30    1
    10     3    31    1
    11     4     5    1
    12     4    32    1
    13     4    33    1
    14     5     6    2
    15     5     7    2
    16     5     8    1
    17     8    24   ar
    18     8     9   ar
    19     9    10   ar
    20     9    34    1
    21    10    11   ar
    22    10    35    1
    23    11    12    1
    24    11    23   ar
    25    12    13    2
    26    12    14   am
    27    14    15    1
    28    14    36    1
    29    15    22   ar
    30    15    16   ar
    31    16    17   ar
    32    16    37    1
    33    17    18   ar
    34    17    38    1
    35    18    19    1
    36    18    20   ar
    37    20    21    1
    38    20    22   ar
    39    22    39    1
    40    23    24   ar
    41    23    40    1
    42    24    41    1
@<TRIPOS>SUBSTRUCTURE
     1 ZINC000469459940        1 TEMP              0 ****  ****    0 ROOT


##########                                Name:    ZINC000632456679
##########                DOCK_Rotatable_Bonds:                   6
##########                         Heavy_Atoms:                  24
##########                    Molecular_Weight:              374.82
##########                DOCK_Rotatable_Bonds:                   6
##########                       Formal_Charge:          -0.0299999
##########                     HBond_Acceptors:                   9
##########                        HBond_Donors:                   1
##########                         Heavy_Atoms:                  24
##########                          Grid_Score:          -28.351170
##########                     Grid_vdw_energy:          -28.242052
##########                      Grid_es_energy:           -0.109118
##########           Internal_energy_repulsive:           34.440407

@<TRIPOS>MOLECULE
ZINC000632456679
 40 41 1 0 0
SMALL
USER_CHARGES


@<TRIPOS>ATOM
      1 C1         -0.2027    3.4690   45.7888 C.3     1  ZINC000632456679   -0.1600
      2 C2         -0.7002    2.1945   46.4737 C.3     1  ZINC000632456679    0.1900
      3 C3         -1.5819    1.4052   45.5038 C.3     1  ZINC000632456679   -0.2000
      4 C4          0.4976    1.3370   46.8872 C.3     1  ZINC000632456679   -0.6300
      5 S5         -0.0604    0.0127   47.9942 S.o2    1  ZINC000632456679    2.4100
      6 C6          1.5065   -0.7800   48.4496 C.3     1  ZINC000632456679   -0.6600
      7 O7         -0.6242    0.6025   49.1576 O.2     1  ZINC000632456679   -0.9300
      8 O8         -0.8331   -0.9117   47.2408 O.2     1  ZINC000632456679   -0.9300
      9 N9         -1.4792    2.5509   47.6621 N.am    1  ZINC000632456679   -0.7200
     10 C10        -0.9022    3.2453   48.6628 C.2     1  ZINC000632456679    0.6200
     11 O11         0.2652    3.5745   48.5799 O.2     1  ZINC000632456679   -0.5000
     12 C12        -1.6872    3.6058   49.8587 C.2     1  ZINC000632456679   -0.0900
     13 C13        -1.4047    3.2755   51.1538 C.2     1  ZINC000632456679   -0.1300
     14 C14        -2.4664    3.8652   51.8936 C.2     1  ZINC000632456679    0.0400
     15 C15        -2.6599    3.8183   53.3642 C.ar    1  ZINC000632456679   -0.0500
     16 C16        -1.6364    4.2249   54.2174 C.ar    1  ZINC000632456679   -0.0600
     17 C17        -1.8208    4.1794   55.5845 C.ar    1  ZINC000632456679   -0.1100
     18 C18        -3.0189    3.7308   56.1102 C.ar    1  ZINC000632456679   -0.0700
     19 C19        -4.0407    3.3250   55.2699 C.ar    1  ZINC000632456679   -0.0800
     20 Cl20       -5.5413    2.7631   55.9379 Cl      1  ZINC000632456679   -0.0400
     21 C21        -3.8695    3.3720   53.8975 C.ar    1  ZINC000632456679    0.1400
     22 F22        -4.8668    2.9762   53.0765 F       1  ZINC000632456679   -0.1100
     23 N23        -3.2389    4.4587   51.0185 N.2     1  ZINC000632456679   -0.3200
     24 O24        -2.8213    4.3309   49.8914 O.3     1  ZINC000632456679    0.1400
     25 H25        -1.0560    4.0799   45.4941 H       1  ZINC000632456679    0.0900
     26 H26         0.4254    4.0312   46.4798 H       1  ZINC000632456679    0.0600
     27 H27         0.3768    3.2038   44.9046 H       1  ZINC000632456679    0.0700
     28 H28        -1.0023    1.1400   44.6196 H       1  ZINC000632456679    0.0800
     29 H29        -1.9362    0.4972   45.9917 H       1  ZINC000632456679    0.0800
     30 H30        -2.4352    2.0161   45.2092 H       1  ZINC000632456679    0.0900
     31 H31         0.9553    0.9001   45.9998 H       1  ZINC000632456679    0.1600
     32 H32         1.2284    1.9589   47.4042 H       1  ZINC000632456679    0.1400
     33 H33         2.1513   -0.0530   48.9435 H       1  ZINC000632456679    0.1300
     34 H34         1.3099   -1.6108   49.1273 H       1  ZINC000632456679    0.1300
     35 H35         1.9997   -1.1524   47.5518 H       1  ZINC000632456679    0.1300
     36 H36        -2.4103    2.2872   47.7287 H       1  ZINC000632456679    0.4200
     37 H37        -0.5705    2.7004   51.5282 H       1  ZINC000632456679    0.1900
     38 H38        -0.6997    4.5751   53.8096 H       1  ZINC000632456679    0.1500
     39 H39        -1.0272    4.4949   56.2456 H       1  ZINC000632456679    0.1500
     40 H40        -3.1573    3.6966   57.1807 H       1  ZINC000632456679    0.1500
@<TRIPOS>BOND
     1     1     2    1
     2     1    25    1
     3     1    26    1
     4     1    27    1
     5     2     3    1
     6     2     4    1
     7     2     9    1
     8     3    28    1
     9     3    29    1
    10     3    30    1
    11     4     5    1
    12     4    31    1
    13     4    32    1
    14     5     6    1
    15     5     7    2
    16     5     8    2
    17     6    33    1
    18     6    34    1
    19     6    35    1
    20     9    10   am
    21     9    36    1
    22    10    11    2
    23    10    12    1
    24    12    24    1
    25    12    13    2
    26    13    14    1
    27    13    37    1
    28    14    15    1
    29    14    23    2
    30    15    21   ar
    31    15    16   ar
    32    16    17   ar
    33    16    38    1
    34    17    18   ar
    35    17    39    1
    36    18    19   ar
    37    18    40    1
    38    19    20    1
    39    19    21   ar
    40    21    22    1
    41    23    24    1
@<TRIPOS>SUBSTRUCTURE
     1 ZINC000632456679        1 TEMP              0 ****  ****    0 ROOT


##########                                Name:    ZINC000186316242
##########                DOCK_Rotatable_Bonds:                   7
##########                         Heavy_Atoms:                  28
##########                    Molecular_Weight:             392.525
##########                DOCK_Rotatable_Bonds:                   7
##########                       Formal_Charge:         -0.00999981
##########                     HBond_Acceptors:                   6
##########                        HBond_Donors:                   0
##########                         Heavy_Atoms:                  28
##########                          Grid_Score:          -28.338926
##########                     Grid_vdw_energy:          -28.814323
##########                      Grid_es_energy:            0.475397
##########           Internal_energy_repulsive:           25.467443

@<TRIPOS>MOLECULE
ZINC000186316242
 52 55 1 0 0
SMALL
USER_CHARGES


@<TRIPOS>ATOM
      1 C1          0.8094    3.7635   48.8831 C.3     1  ZINC000186316242   -0.1500
      2 C2          0.4534    2.3053   49.1798 C.3     1  ZINC000186316242    0.1000
      3 N3         -1.0033    2.1500   49.1870 N.am    1  ZINC000186316242   -0.5900
      4 C4         -1.7373    2.7222   50.1618 C.2     1  ZINC000186316242    0.5900
      5 O5         -2.9467    2.5932   50.1678 O.2     1  ZINC000186316242   -0.5000
      6 C6         -1.0746    3.5043   51.2202 C.2     1  ZINC000186316242    0.0100
      7 C7         -1.3770    4.8105   51.4654 C.2     1  ZINC000186316242   -0.2100
      8 S8         -0.4086    5.3727   52.7580 S.3     1  ZINC000186316242    0.2000
      9 C9          0.3580    3.7948   52.8953 C.2     1  ZINC000186316242    0.0700
     10 C10         1.4082    3.4387   53.8741 C.ar    1  ZINC000186316242    0.1900
     11 C11         1.8456    4.3892   54.7960 C.ar    1  ZINC000186316242   -0.1500
     12 C12         2.8288    4.0406   55.7060 C.ar    1  ZINC000186316242   -0.0700
     13 C13         3.3430    2.7526   55.6648 C.ar    1  ZINC000186316242   -0.1600
     14 C14         2.8630    1.8596   54.7234 C.ar    1  ZINC000186316242    0.1100
     15 N15         1.9234    2.2145   53.8717 N.ar    1  ZINC000186316242   -0.4500
     16 N16        -0.1436    2.9899   52.0096 N.2     1  ZINC000186316242   -0.3900
     17 C17        -1.6623    1.3724   48.1346 C.3     1  ZINC000186316242    0.1400
     18 H18        -2.7340    1.3126   48.3241 H       1  ZINC000186316242    0.1000
     19 C19        -1.0520   -0.0456   48.0533 C.3     1  ZINC000186316242   -0.1300
     20 C20        -1.0071   -0.3165   46.5284 C.3     1  ZINC000186316242    0.0400
     21 N21        -0.6494    1.0075   45.9584 N.3     1  ZINC000186316242   -0.4900
     22 C22        -1.0184    1.0865   44.5387 C.3     1  ZINC000186316242    0.0800
     23 C23         0.2305    1.1116   43.6957 C.ar    1  ZINC000186316242   -0.0700
     24 C24         0.4088    0.1734   42.6963 C.ar    1  ZINC000186316242   -0.1000
     25 C25         1.5545    0.1965   41.9231 C.ar    1  ZINC000186316242   -0.1200
     26 C26         2.5216    1.1580   42.1489 C.ar    1  ZINC000186316242   -0.1200
     27 C27         2.3428    2.0968   43.1478 C.ar    1  ZINC000186316242   -0.1200
     28 C28         1.1953    2.0764   43.9182 C.ar    1  ZINC000186316242   -0.1100
     29 C29        -1.3976    2.0063   46.7564 C.3     1  ZINC000186316242    0.0400
     30 H30         1.8932    3.8790   48.8778 H       1  ZINC000186316242    0.0700
     31 H31         0.4092    4.0442   47.9089 H       1  ZINC000186316242    0.0500
     32 H32         0.3792    4.4060   49.6514 H       1  ZINC000186316242    0.0400
     33 H33         0.8834    1.6628   48.4115 H       1  ZINC000186316242    0.1200
     34 H34         0.8534    2.0245   50.1541 H       1  ZINC000186316242    0.0700
     35 H35        -2.1098    5.3959   50.9299 H       1  ZINC000186316242    0.1900
     36 H36         1.4235    5.3833   54.7997 H       1  ZINC000186316242    0.1400
     37 H37         3.1879    4.7554   56.4315 H       1  ZINC000186316242    0.1400
     38 H38         4.1112    2.4500   56.3610 H       1  ZINC000186316242    0.1400
     39 H39         3.2618    0.8566   54.6888 H       1  ZINC000186316242    0.1600
     40 H40        -0.0477   -0.0582   48.4770 H       1  ZINC000186316242    0.0900
     41 H41        -1.6926   -0.7707   48.5552 H       1  ZINC000186316242    0.0700
     42 H42        -0.2426   -1.0566   46.2915 H       1  ZINC000186316242    0.0800
     43 H43        -1.9828   -0.6404   46.1664 H       1  ZINC000186316242    0.0400
     44 H44        -1.6202    0.2181   44.2708 H       1  ZINC000186316242    0.0400
     45 H45        -1.5938    1.9955   44.3627 H       1  ZINC000186316242    0.0800
     46 H46        -0.3467   -0.5778   42.5198 H       1  ZINC000186316242    0.1200
     47 H47         1.6941   -0.5370   41.1427 H       1  ZINC000186316242    0.1200
     48 H48         3.4170    1.1756   41.5453 H       1  ZINC000186316242    0.1200
     49 H49         3.0986    2.8479   43.3245 H       1  ZINC000186316242    0.1200
     50 H50         1.0556    2.8098   44.6985 H       1  ZINC000186316242    0.1200
     51 H51        -2.3422    2.2414   46.2659 H       1  ZINC000186316242    0.0500
     52 H52        -0.8011    2.9111   46.8724 H       1  ZINC000186316242    0.0800
@<TRIPOS>BOND
     1     1     2    1
     2     1    30    1
     3     1    31    1
     4     1    32    1
     5     2     3    1
     6     2    33    1
     7     2    34    1
     8     3     4   am
     9     3    17    1
    10     4     5    2
    11     4     6    1
    12     6    16    1
    13     6     7    2
    14     7     8    1
    15     7    35    1
    16     8     9    1
    17     9    10    1
    18     9    16    2
    19    10    15   ar
    20    10    11   ar
    21    11    12   ar
    22    11    36    1
    23    12    13   ar
    24    12    37    1
    25    13    14   ar
    26    13    38    1
    27    14    15   ar
    28    14    39    1
    29    17    18    1
    30    17    29    1
    31    17    19    1
    32    19    20    1
    33    19    40    1
    34    19    41    1
    35    20    21    1
    36    20    42    1
    37    20    43    1
    38    21    22    1
    39    21    29    1
    40    22    23    1
    41    22    44    1
    42    22    45    1
    43    23    28   ar
    44    23    24   ar
    45    24    25   ar
    46    24    46    1
    47    25    26   ar
    48    25    47    1
    49    26    27   ar
    50    26    48    1
    51    27    28   ar
    52    27    49    1
    53    28    50    1
    54    29    51    1
    55    29    52    1
@<TRIPOS>SUBSTRUCTURE
     1 ZINC000186316242        1 TEMP              0 ****  ****    0 ROOT


##########                                Name:    ZINC001139743874
##########                DOCK_Rotatable_Bonds:                   5
##########                         Heavy_Atoms:                  28
##########                    Molecular_Weight:             382.506
##########                DOCK_Rotatable_Bonds:                   5
##########                       Formal_Charge:           0.0199992
##########                     HBond_Acceptors:                   6
##########                        HBond_Donors:                   0
##########                         Heavy_Atoms:                  28
##########                          Grid_Score:          -28.304150
##########                     Grid_vdw_energy:          -28.478420
##########                      Grid_es_energy:            0.174271
##########           Internal_energy_repulsive:           30.108959

@<TRIPOS>MOLECULE
ZINC001139743874
 58 61 1 0 0
SMALL
USER_CHARGES


@<TRIPOS>ATOM
      1 C1          2.6945    1.1153   43.9191 C.3     1  ZINC001139743874   -0.1800
      2 C2          1.3073    1.1913   44.5600 C.3     1  ZINC001139743874    0.1400
      3 C3          0.9570    2.6529   44.8462 C.3     1  ZINC001139743874   -0.1800
      4 C4          0.2710    0.5961   43.6047 C.3     1  ZINC001139743874   -0.1400
      5 O5          1.3068    0.4411   45.8032 O.3     1  ZINC001139743874   -0.3600
      6 C6          0.1173    0.2604   46.4076 C.2     1  ZINC001139743874    0.6500
      7 O7         -0.7706   -0.3390   45.8342 O.2     1  ZINC001139743874   -0.5700
      8 N8         -0.0884    0.7443   47.6485 N.am    1  ZINC001139743874   -0.5900
      9 C9         -1.3443    0.5615   48.3046 C.3     1  ZINC001139743874    0.1000
     10 C10        -2.4313    1.6289   47.9918 C.3     1  ZINC001139743874   -0.1300
     11 C11        -1.7688    3.0359   47.9348 C.3     1  ZINC001139743874   -0.0900
     12 C12        -0.7096    3.1936   48.9757 C.3     1  ZINC001139743874   -0.0800
     13 C13        -0.7588    4.4936   49.7874 C.3     1  ZINC001139743874    0.0100
     14 N14        -1.5551    3.7250   50.7714 N.3     1  ZINC001139743874   -0.4700
     15 C15        -1.1288    4.0271   52.1444 C.3     1  ZINC001139743874    0.0600
     16 C16        -2.2058    3.6032   53.1095 C.ar    1  ZINC001139743874   -0.1200
     17 C17        -1.8596    3.0459   54.3389 C.ar    1  ZINC001139743874    0.1500
     18 N18        -2.7702    2.6662   55.2024 N.ar    1  ZINC001139743874   -0.4600
     19 C19        -4.0724    2.7980   54.9401 C.ar    1  ZINC001139743874    0.0800
     20 C20        -5.0488    2.3893   55.8706 C.ar    1  ZINC001139743874   -0.0400
     21 C21        -6.3633    2.5520   55.5408 C.ar    1  ZINC001139743874   -0.1600
     22 C22        -6.7097    3.1092   54.3109 C.ar    1  ZINC001139743874    0.1300
     23 N23        -5.7993    3.4885   53.4473 N.ar    1  ZINC001139743874   -0.4700
     24 C24        -4.4967    3.3568   53.7098 C.ar    1  ZINC001139743874    0.0800
     25 C25        -3.5205    3.7702   52.7817 C.ar    1  ZINC001139743874   -0.0400
     26 C26        -0.9566    2.4562   50.2970 C.3     1  ZINC001139743874    0.0000
     27 C27         0.6633    2.9072   48.3596 C.3     1  ZINC001139743874   -0.1300
     28 C28         0.9959    1.4798   48.3727 C.3     1  ZINC001139743874    0.1400
     29 H29         3.4329    1.5394   44.5997 H       1  ZINC001139743874    0.0900
     30 H30         2.9440    0.0741   43.7153 H       1  ZINC001139743874    0.0600
     31 H31         2.6949    1.6785   42.9859 H       1  ZINC001139743874    0.0700
     32 H32         0.9574    3.2160   43.9129 H       1  ZINC001139743874    0.0700
     33 H33        -0.0314    2.7070   45.3026 H       1  ZINC001139743874    0.0600
     34 H34         1.6953    3.0770   45.5267 H       1  ZINC001139743874    0.0900
     35 H35         0.5205   -0.4453   43.4009 H       1  ZINC001139743874    0.0700
     36 H36        -0.7173    0.6501   44.0613 H       1  ZINC001139743874    0.0700
     37 H37         0.2713    1.1592   42.6714 H       1  ZINC001139743874    0.0800
     38 H38        -1.7360   -0.4164   48.0246 H       1  ZINC001139743874    0.0700
     39 H39        -1.1695    0.5579   49.3805 H       1  ZINC001139743874    0.0900
     40 H40        -2.8946    1.4057   47.0307 H       1  ZINC001139743874    0.0700
     41 H41        -3.1901    1.6155   48.7742 H       1  ZINC001139743874    0.0800
     42 H42        -1.3231    3.1787   46.9504 H       1  ZINC001139743874    0.0600
     43 H43        -2.5349    3.7956   48.0898 H       1  ZINC001139743874    0.0700
     44 H44         0.2128    4.8150   50.1626 H       1  ZINC001139743874    0.0700
     45 H45        -1.3152    5.2949   49.3011 H       1  ZINC001139743874    0.0900
     46 H46        -0.2087    3.4865   52.3664 H       1  ZINC001139743874    0.0600
     47 H47        -0.9537    5.0984   52.2431 H       1  ZINC001139743874    0.0900
     48 H48        -0.8155    2.9236   54.5864 H       1  ZINC001139743874    0.1700
     49 H49        -4.7646    1.9586   56.8193 H       1  ZINC001139743874    0.1500
     50 H50        -7.1352    2.2487   56.2326 H       1  ZINC001139743874    0.1500
     51 H51        -7.7538    3.2313   54.0632 H       1  ZINC001139743874    0.1700
     52 H52        -3.8049    4.2042   51.8345 H       1  ZINC001139743874    0.1400
     53 H53        -1.6705    1.6364   50.2162 H       1  ZINC001139743874    0.1000
     54 H54        -0.0434    2.1771   50.8223 H       1  ZINC001139743874    0.0700
     55 H55         0.6687    3.2629   47.3293 H       1  ZINC001139743874    0.0700
     56 H56         1.4227    3.4502   48.9222 H       1  ZINC001139743874    0.0800
     57 H57         1.0609    1.1273   49.4021 H       1  ZINC001139743874    0.0800
     58 H58         1.9490    1.3201   47.8685 H       1  ZINC001139743874    0.1000
@<TRIPOS>BOND
     1     1     2    1
     2     1    29    1
     3     1    30    1
     4     1    31    1
     5     2     3    1
     6     2     4    1
     7     2     5    1
     8     3    32    1
     9     3    33    1
    10     3    34    1
    11     4    35    1
    12     4    36    1
    13     4    37    1
    14     5     6    1
    15     6     7    2
    16     6     8   am
    17     8    28    1
    18     8     9    1
    19     9    10    1
    20     9    38    1
    21     9    39    1
    22    10    11    1
    23    10    40    1
    24    10    41    1
    25    11    12    1
    26    11    42    1
    27    11    43    1
    28    12    26    1
    29    12    13    1
    30    12    27    1
    31    13    14    1
    32    13    44    1
    33    13    45    1
    34    14    15    1
    35    14    26    1
    36    15    16    1
    37    15    46    1
    38    15    47    1
    39    16    25   ar
    40    16    17   ar
    41    17    18   ar
    42    17    48    1
    43    18    19   ar
    44    19    24   ar
    45    19    20   ar
    46    20    21   ar
    47    20    49    1
    48    21    22   ar
    49    21    50    1
    50    22    23   ar
    51    22    51    1
    52    23    24   ar
    53    24    25   ar
    54    25    52    1
    55    26    53    1
    56    26    54    1
    57    27    28    1
    58    27    55    1
    59    27    56    1
    60    28    57    1
    61    28    58    1
@<TRIPOS>SUBSTRUCTURE
     1 ZINC001139743874        1 TEMP              0 ****  ****    0 ROOT


##########                                Name:    ZINC001220171460
##########                DOCK_Rotatable_Bonds:                  10
##########                         Heavy_Atoms:                  25
##########                    Molecular_Weight:             383.773
##########                DOCK_Rotatable_Bonds:                  10
##########                       Formal_Charge:           0.0199996
##########                     HBond_Acceptors:                  10
##########                        HBond_Donors:                   3
##########                         Heavy_Atoms:                  25
##########                          Grid_Score:          -28.301466
##########                     Grid_vdw_energy:          -27.202511
##########                      Grid_es_energy:           -1.098955
##########           Internal_energy_repulsive:            7.273330

@<TRIPOS>MOLECULE
ZINC001220171460
 43 44 1 0 0
SMALL
USER_CHARGES


@<TRIPOS>ATOM
      1 C1        -10.5329   -0.1972   56.2432 C.3     1  ZINC001220171460    0.0200
      2 O2        -10.2809   -1.2767   57.1448 O.3     1  ZINC001220171460   -0.3100
      3 C3        -11.3626   -1.9569   57.6115 C.ar    1  ZINC001220171460    0.1000
      4 C4        -12.0684   -2.7993   56.7691 C.ar    1  ZINC001220171460   -0.1500
      5 C5        -13.1688   -3.4910   57.2444 C.ar    1  ZINC001220171460   -0.0600
      6 Cl6       -14.0516   -4.5469   56.1864 Cl      1  ZINC001220171460   -0.0400
      7 C7        -13.5669   -3.3426   58.5628 C.ar    1  ZINC001220171460    0.1000
      8 F8        -14.6414   -4.0199   59.0231 F       1  ZINC001220171460   -0.1200
      9 C9        -12.8652   -2.5020   59.4094 C.ar    1  ZINC001220171460   -0.1200
     10 C10       -11.7585   -1.8113   58.9391 C.ar    1  ZINC001220171460    0.1800
     11 N11       -11.0463   -0.9593   59.7950 N.am    1  ZINC001220171460   -0.6700
     12 C12        -9.9628   -1.4170   60.4530 C.2     1  ZINC001220171460    0.7100
     13 O13        -9.6029   -2.5688   60.3043 O.2     1  ZINC001220171460   -0.5700
     14 N14        -9.2782   -0.5980   61.2758 N.am    1  ZINC001220171460   -0.7400
     15 C15        -8.1015   -1.0960   61.9923 C.3     1  ZINC001220171460    0.1400
     16 C16        -7.2138    0.0828   62.3966 C.3     1  ZINC001220171460   -0.1400
     17 C17        -7.8259    0.7905   63.6071 C.3     1  ZINC001220171460    0.0500
     18 H18        -8.9044    0.6327   63.6132 H       1  ZINC001220171460    0.1000
     19 N19        -7.2440    0.2437   64.8401 N.3     1  ZINC001220171460   -0.6500
     20 C20        -8.2841   -0.3332   65.7023 C.3     1  ZINC001220171460    0.0100
     21 C21        -7.8898   -0.7044   67.1333 C.3     1  ZINC001220171460   -0.2000
     22 C22        -8.7786    0.5142   66.8763 C.3     1  ZINC001220171460   -0.1600
     23 C23        -7.5304    2.2895   63.5247 C.3     1  ZINC001220171460    0.4600
     24 F24        -6.1554    2.5023   63.6693 F       1  ZINC001220171460   -0.1800
     25 F25        -7.9503    2.7801   62.2837 F       1  ZINC001220171460   -0.1800
     26 F26        -8.2156    2.9566   64.5460 F       1  ZINC001220171460   -0.1700
     27 H27       -11.0455   -0.5749   55.3584 H       1  ZINC001220171460    0.0600
     28 H28       -11.1581    0.5483   56.7346 H       1  ZINC001220171460    0.0600
     29 H29        -9.5876    0.2585   55.9486 H       1  ZINC001220171460    0.1100
     30 H30       -11.7603   -2.9163   55.7406 H       1  ZINC001220171460    0.1500
     31 H31       -13.1769   -2.3872   60.4371 H       1  ZINC001220171460    0.1800
     32 H32       -11.3335   -0.0403   59.9137 H       1  ZINC001220171460    0.4200
     33 H33        -9.5646    0.3213   61.3935 H       1  ZINC001220171460    0.4000
     34 H34        -8.4204   -1.6337   62.8853 H       1  ZINC001220171460    0.0800
     35 H35        -7.5394   -1.7687   61.3446 H       1  ZINC001220171460    0.0700
     36 H36        -6.2196   -0.2825   62.6538 H       1  ZINC001220171460    0.1000
     37 H37        -7.1396    0.7836   61.5651 H       1  ZINC001220171460    0.1000
     38 H38        -6.5289   -0.4368   64.6315 H       1  ZINC001220171460    0.3600
     39 H39        -9.0120   -0.9699   65.1993 H       1  ZINC001220171460    0.1200
     40 H40        -8.3582   -1.5854   67.5719 H       1  ZINC001220171460    0.1000
     41 H41        -6.8586   -0.5204   67.4349 H       1  ZINC001220171460    0.1000
     42 H42        -8.3322    1.4997   67.0089 H       1  ZINC001220171460    0.1000
     43 H43        -9.8317    0.4347   67.1459 H       1  ZINC001220171460    0.1000
@<TRIPOS>BOND
     1     1     2    1
     2     1    27    1
     3     1    28    1
     4     1    29    1
     5     2     3    1
     6     3    10   ar
     7     3     4   ar
     8     4     5   ar
     9     4    30    1
    10     5     6    1
    11     5     7   ar
    12     7     8    1
    13     7     9   ar
    14     9    10   ar
    15     9    31    1
    16    10    11    1
    17    11    12   am
    18    11    32    1
    19    12    13    2
    20    12    14   am
    21    14    15    1
    22    14    33    1
    23    15    16    1
    24    15    34    1
    25    15    35    1
    26    16    17    1
    27    16    36    1
    28    16    37    1
    29    17    18    1
    30    17    19    1
    31    17    23    1
    32    19    20    1
    33    19    38    1
    34    20    22    1
    35    20    21    1
    36    20    39    1
    37    21    22    1
    38    21    40    1
    39    21    41    1
    40    22    42    1
    41    22    43    1
    42    23    24    1
    43    23    25    1
    44    23    26    1
@<TRIPOS>SUBSTRUCTURE
     1 ZINC001220171460        1 TEMP              0 ****  ****    0 ROOT


##########                                Name:    ZINC000443933644
##########                DOCK_Rotatable_Bonds:                   8
##########                         Heavy_Atoms:                  27
##########                    Molecular_Weight:             402.438
##########                DOCK_Rotatable_Bonds:                   8
##########                       Formal_Charge:          0.00999922
##########                     HBond_Acceptors:                   9
##########                        HBond_Donors:                   2
##########                         Heavy_Atoms:                  27
##########                          Grid_Score:          -28.301277
##########                     Grid_vdw_energy:          -25.285099
##########                      Grid_es_energy:           -3.016179
##########           Internal_energy_repulsive:           40.908756

@<TRIPOS>MOLECULE
ZINC000443933644
 48 49 1 0 0
SMALL
USER_CHARGES


@<TRIPOS>ATOM
      1 C1        -17.0323   -1.2023   57.3642 C.3     1  ZINC000443933644   -0.1500
      2 C2        -15.6569   -1.6813   57.8327 C.3     1  ZINC000443933644   -0.1400
      3 C3        -15.2473   -0.9071   59.0872 C.3     1  ZINC000443933644   -0.1000
      4 H4        -16.0832   -0.8794   59.7862 H       1  ZINC000443933644    0.1000
      5 C5        -14.8581    0.5212   58.7007 C.3     1  ZINC000443933644   -0.1700
      6 C6        -14.0536   -1.6001   59.7472 C.3     1  ZINC000443933644    0.1200
      7 H7        -13.2817   -0.8628   59.9678 H       1  ZINC000443933644    0.1300
      8 N8        -13.5142   -2.6147   58.8383 N.am    1  ZINC000443933644   -1.1100
      9 S9        -12.2461   -2.2424   57.8405 S.o2    1  ZINC000443933644    2.6900
     10 O10       -11.8633   -3.4562   57.2083 O.2     1  ZINC000443933644   -0.9400
     11 O11       -12.6298   -1.0787   57.1210 O.2     1  ZINC000443933644   -0.9400
     12 C12       -10.8953   -1.7692   58.8682 C.ar    1  ZINC000443933644   -0.7000
     13 C13        -9.8723   -0.9548   58.3538 C.ar    1  ZINC000443933644    0.0500
     14 C14        -9.9012   -0.5025   57.0231 C.ar    1  ZINC000443933644   -0.1400
     15 C15        -8.8939    0.2855   56.5575 C.ar    1  ZINC000443933644   -0.0800
     16 C16        -7.8312    0.6523   57.3809 C.ar    1  ZINC000443933644   -0.1200
     17 C17        -7.7702    0.2324   58.6747 C.ar    1  ZINC000443933644   -0.0900
     18 C18        -8.7915   -0.5812   59.1901 C.ar    1  ZINC000443933644   -0.0900
     19 C19        -8.7621   -1.0353   60.5257 C.ar    1  ZINC000443933644    0.2300
     20 N20        -7.7065   -0.6799   61.3674 N.am    1  ZINC000443933644   -0.6700
     21 C21        -7.7864    0.4404   62.1124 C.2     1  ZINC000443933644    0.5100
     22 C22        -6.6469    0.8241   63.0210 C.3     1  ZINC000443933644   -0.1700
     23 O23        -8.7754    1.1399   62.0515 O.2     1  ZINC000443933644   -0.5100
     24 C24        -9.7850   -1.8326   60.9919 C.ar    1  ZINC000443933644   -0.1600
     25 C25       -10.8448   -2.1878   60.1629 C.ar    1  ZINC000443933644    0.0400
     26 C26       -14.5065   -2.2687   61.0467 C.3     1  ZINC000443933644    0.4300
     27 F27       -15.1359   -1.3229   61.8631 F       1  ZINC000443933644   -0.1700
     28 F28       -15.4035   -3.3011   60.7520 F       1  ZINC000443933644   -0.1600
     29 F29       -13.3941   -2.7935   61.7134 F       1  ZINC000443933644   -0.1700
     30 H30       -17.7650   -1.3742   58.1526 H       1  ZINC000443933644    0.0500
     31 H31       -16.9877   -0.1374   57.1356 H       1  ZINC000443933644    0.0600
     32 H32       -17.3241   -1.7538   56.4704 H       1  ZINC000443933644    0.0600
     33 H33       -15.7015   -2.7461   58.0613 H       1  ZINC000443933644    0.0700
     34 H34       -14.9242   -1.5093   57.0443 H       1  ZINC000443933644    0.0900
     35 H35       -15.7384    1.0523   58.3384 H       1  ZINC000443933644    0.0700
     36 H36       -14.4559    1.0369   59.5728 H       1  ZINC000443933644    0.0600
     37 H37       -14.1027    0.4920   57.9155 H       1  ZINC000443933644    0.0700
     38 H38       -13.8999   -3.5046   58.8209 H       1  ZINC000443933644    0.4300
     39 H39       -10.7184   -0.7792   56.3734 H       1  ZINC000443933644    0.1400
     40 H40        -8.9183    0.6313   55.5346 H       1  ZINC000443933644    0.1300
     41 H41        -7.0444    1.2784   56.9870 H       1  ZINC000443933644    0.1300
     42 H42        -6.9403    0.5239   59.3012 H       1  ZINC000443933644    0.1300
     43 H43        -6.9155   -1.2393   61.4160 H       1  ZINC000443933644    0.4200
     44 H44        -5.8533    0.0812   62.9418 H       1  ZINC000443933644    0.0800
     45 H45        -6.2614    1.8005   62.7277 H       1  ZINC000443933644    0.1000
     46 H46        -7.0022    0.8680   64.0505 H       1  ZINC000443933644    0.1000
     47 H47        -9.7661   -2.1822   62.0136 H       1  ZINC000443933644    0.1500
     48 H48       -11.6353   -2.8136   60.5499 H       1  ZINC000443933644    0.1500
@<TRIPOS>BOND
     1     1     2    1
     2     1    30    1
     3     1    31    1
     4     1    32    1
     5     2     3    1
     6     2    33    1
     7     2    34    1
     8     3     4    1
     9     3     5    1
    10     3     6    1
    11     5    35    1
    12     5    36    1
    13     5    37    1
    14     6     7    1
    15     6     8    1
    16     6    26    1
    17     8     9   am
    18     8    38    1
    19     9    10    2
    20     9    11    2
    21     9    12    1
    22    12    25   ar
    23    12    13   ar
    24    13    18   ar
    25    13    14   ar
    26    14    15   ar
    27    14    39    1
    28    15    16   ar
    29    15    40    1
    30    16    17   ar
    31    16    41    1
    32    17    18   ar
    33    17    42    1
    34    18    19   ar
    35    19    20    1
    36    19    24   ar
    37    20    21   am
    38    20    43    1
    39    21    22    1
    40    21    23    2
    41    22    44    1
    42    22    45    1
    43    22    46    1
    44    24    25   ar
    45    24    47    1
    46    25    48    1
    47    26    27    1
    48    26    28    1
    49    26    29    1
@<TRIPOS>SUBSTRUCTURE
     1 ZINC000443933644        1 TEMP              0 ****  ****    0 ROOT


##########                                Name:    ZINC000971513996
##########                DOCK_Rotatable_Bonds:                   6
##########                         Heavy_Atoms:                  27
##########                    Molecular_Weight:             369.464
##########                DOCK_Rotatable_Bonds:                   6
##########                       Formal_Charge:          -0.0300002
##########                     HBond_Acceptors:                   6
##########                        HBond_Donors:                   1
##########                         Heavy_Atoms:                  27
##########                          Grid_Score:          -28.301105
##########                     Grid_vdw_energy:          -26.574188
##########                      Grid_es_energy:           -1.726917
##########           Internal_energy_repulsive:           30.180773

@<TRIPOS>MOLECULE
ZINC000971513996
 54 57 1 0 0
SMALL
USER_CHARGES


@<TRIPOS>ATOM
      1 C1         -7.1556    3.9968   54.6989 C.3     1  ZINC000971513996   -0.1600
      2 C2         -6.0122    3.0967   55.1716 C.3     1  ZINC000971513996   -0.1400
      3 C3         -4.6887    3.8575   55.0696 C.3     1  ZINC000971513996    0.0800
      4 H4         -4.4692    4.0657   54.0224 H       1  ZINC000971513996    0.0800
      5 O5         -4.7899    5.0881   55.7889 O.3     1  ZINC000971513996   -0.3600
      6 C6         -5.0183    4.9251   57.1902 C.3     1  ZINC000971513996    0.0200
      7 C7         -3.5819    3.0211   55.6581 C.2     1  ZINC000971513996    0.5400
      8 O8         -3.8250    1.9189   56.1017 O.2     1  ZINC000971513996   -0.5100
      9 N9         -2.3218    3.4980   55.6916 N.am    1  ZINC000971513996   -0.6400
     10 C10        -1.0099    3.0200   56.1605 C.3     1  ZINC000971513996    0.1000
     11 C11        -0.3711    3.9032   55.0714 C.3     1  ZINC000971513996   -0.1200
     12 H12         0.5526    4.4020   55.3650 H       1  ZINC000971513996    0.1100
     13 C13        -0.2763    3.1616   53.7358 C.3     1  ZINC000971513996   -0.1200
     14 C14        -0.5614    4.1416   52.5939 C.3     1  ZINC000971513996    0.1100
     15 N15        -1.8962    4.7100   52.7994 N.am    1  ZINC000971513996   -0.6000
     16 C16        -2.8267    4.5986   51.8308 C.2     1  ZINC000971513996    0.5900
     17 O17        -3.9363    5.0688   51.9963 O.2     1  ZINC000971513996   -0.5200
     18 C18        -2.5006    3.9087   50.5737 C.2     1  ZINC000971513996    0.0200
     19 C19        -2.2277    4.5165   49.3896 C.2     1  ZINC000971513996   -0.1000
     20 C20        -1.9662    3.5038   48.4352 C.ar    1  ZINC000971513996   -0.1100
     21 C21        -1.6340    3.5265   47.0748 C.ar    1  ZINC000971513996   -0.0600
     22 C22        -1.4376    2.3543   46.4042 C.ar    1  ZINC000971513996   -0.1200
     23 C23        -1.0804    2.3823   44.9404 C.3     1  ZINC000971513996   -0.1100
     24 C24        -1.5634    1.1354   47.0584 C.ar    1  ZINC000971513996   -0.0800
     25 C25        -1.8891    1.0868   48.3956 C.ar    1  ZINC000971513996   -0.1300
     26 C26        -2.0949    2.2688   49.1011 C.ar    1  ZINC000971513996    0.1100
     27 N27        -2.4168    2.5395   50.4100 N.pl3   1  ZINC000971513996   -0.5800
     28 C28        -2.2257    5.3944   54.0428 C.3     1  ZINC000971513996    0.0700
     29 C29        -1.6370    4.7230   55.2722 C.3     1  ZINC000971513996    0.1300
     30 H30        -1.5392    5.4273   56.0982 H       1  ZINC000971513996    0.1100
     31 H31        -8.0823    3.4235   54.6726 H       1  ZINC000971513996    0.0600
     32 H32        -7.2664    4.8350   55.3868 H       1  ZINC000971513996    0.0600
     33 H33        -6.9327    4.3732   53.7005 H       1  ZINC000971513996    0.0600
     34 H34        -6.1845    2.8045   56.2075 H       1  ZINC000971513996    0.0800
     35 H35        -5.9684    2.2057   54.5453 H       1  ZINC000971513996    0.0800
     36 H36        -5.9969    4.4719   57.3485 H       1  ZINC000971513996    0.0400
     37 H37        -4.2469    4.2805   57.6114 H       1  ZINC000971513996    0.0500
     38 H38        -4.9853    5.8987   57.6792 H       1  ZINC000971513996    0.0900
     39 H39        -0.7683    3.3372   57.1750 H       1  ZINC000971513996    0.0900
     40 H40        -0.8535    1.9530   56.0024 H       1  ZINC000971513996    0.0800
     41 H41         0.7255    2.7481   53.6192 H       1  ZINC000971513996    0.0900
     42 H42        -1.0089    2.3548   53.7145 H       1  ZINC000971513996    0.0700
     43 H43         0.1823    4.9385   52.5992 H       1  ZINC000971513996    0.0800
     44 H44        -0.5291    3.6144   51.6404 H       1  ZINC000971513996    0.1000
     45 H45        -2.2130    5.5812   49.2087 H       1  ZINC000971513996    0.1500
     46 H46        -1.5340    4.4693   46.5576 H       1  ZINC000971513996    0.1200
     47 H47         0.0037    2.4168   44.8316 H       1  ZINC000971513996    0.0700
     48 H48        -1.4660    1.4858   44.4550 H       1  ZINC000971513996    0.0600
     49 H49        -1.5203    3.2648   44.4759 H       1  ZINC000971513996    0.0600
     50 H50        -1.4046    0.2169   46.5130 H       1  ZINC000971513996    0.1300
     51 H51        -1.9850    0.1342   48.8953 H       1  ZINC000971513996    0.1200
     52 H52        -2.5622    1.8778   51.1043 H       1  ZINC000971513996    0.4200
     53 H53        -1.8408    6.4132   53.9954 H       1  ZINC000971513996    0.0800
     54 H54        -3.3102    5.4357   54.1441 H       1  ZINC000971513996    0.1200
@<TRIPOS>BOND
     1     1     2    1
     2     1    31    1
     3     1    32    1
     4     1    33    1
     5     2     3    1
     6     2    34    1
     7     2    35    1
     8     3     4    1
     9     3     5    1
    10     3     7    1
    11     5     6    1
    12     6    36    1
    13     6    37    1
    14     6    38    1
    15     7     8    2
    16     7     9   am
    17     9    29    1
    18     9    10    1
    19    10    11    1
    20    10    39    1
    21    10    40    1
    22    11    12    1
    23    11    29    1
    24    11    13    1
    25    13    14    1
    26    13    41    1
    27    13    42    1
    28    14    15    1
    29    14    43    1
    30    14    44    1
    31    15    16   am
    32    15    28    1
    33    16    17    2
    34    16    18    1
    35    18    27    1
    36    18    19    2
    37    19    20    1
    38    19    45    1
    39    20    26   ar
    40    20    21   ar
    41    21    22   ar
    42    21    46    1
    43    22    23    1
    44    22    24   ar
    45    23    47    1
    46    23    48    1
    47    23    49    1
    48    24    25   ar
    49    24    50    1
    50    25    26   ar
    51    25    51    1
    52    26    27    1
    53    27    52    1
    54    28    29    1
    55    28    53    1
    56    28    54    1
    57    29    30    1
@<TRIPOS>SUBSTRUCTURE
     1 ZINC000971513996        1 TEMP              0 ****  ****    0 ROOT


##########                                Name:    ZINC000676204775
##########                DOCK_Rotatable_Bonds:                   4
##########                         Heavy_Atoms:                  25
##########                    Molecular_Weight:             359.452
##########                DOCK_Rotatable_Bonds:                   4
##########                       Formal_Charge:          0.00999978
##########                     HBond_Acceptors:                   8
##########                        HBond_Donors:                   2
##########                         Heavy_Atoms:                  25
##########                          Grid_Score:          -28.296776
##########                     Grid_vdw_energy:          -26.915628
##########                      Grid_es_energy:           -1.381148
##########           Internal_energy_repulsive:            6.364268

@<TRIPOS>MOLECULE
ZINC000676204775
 46 49 1 0 0
SMALL
USER_CHARGES


@<TRIPOS>ATOM
      1 C1          0.1159    1.6128   45.7402 C.3     1  ZINC000676204775   -0.1600
      2 C2         -0.4116    2.8732   46.4288 C.3     1  ZINC000676204775    0.1600
      3 C3         -1.2418    3.6878   45.4347 C.3     1  ZINC000676204775   -0.1600
      4 N4         -1.2496    2.4926   47.5685 N.pl3   1  ZINC000676204775   -0.3900
      5 N5         -1.7033    1.1990   47.8460 N.2     1  ZINC000676204775   -0.2500
      6 C6         -2.4245    1.2006   48.9305 C.2     1  ZINC000676204775    0.0900
      7 C7         -2.4730    2.5704   49.4315 C.ar    1  ZINC000676204775   -0.2100
      8 C8         -3.0798    3.1818   50.5339 C.ar    1  ZINC000676204775    0.0800
      9 C9         -2.9301    4.5246   50.7281 C.ar    1  ZINC000676204775   -0.7200
     10 S10        -3.6932    5.2960   52.1164 S.o2    1  ZINC000676204775    2.6900
     11 O11        -3.8719    6.6621   51.7684 O.2     1  ZINC000676204775   -0.9300
     12 O12        -4.7634    4.4475   52.5088 O.2     1  ZINC000676204775   -0.9600
     13 N13        -2.5962    5.2689   53.3566 N.am    1  ZINC000676204775   -1.1100
     14 C14        -2.0850    3.9895   53.8545 C.3     1  ZINC000676204775    0.2400
     15 H15        -2.2006    3.2237   53.0875 H       1  ZINC000676204775    0.1000
     16 C16        -2.8562    3.5796   55.1153 C.3     1  ZINC000676204775   -0.1200
     17 C17        -2.1728    2.3779   55.7715 C.3     1  ZINC000676204775   -0.1200
     18 C18        -0.8540    2.8212   56.4170 C.3     1  ZINC000676204775   -0.0400
     19 C19        -0.0661    3.5992   55.3920 C.2     1  ZINC000676204775   -0.2300
     20 C20         1.2430    3.9114   55.4067 C.2     1  ZINC000676204775    0.0600
     21 N21         1.5085    4.6145   54.2829 N.pl3   1  ZINC000676204775   -0.4800
     22 N22         0.3148    4.7361   53.5554 N.2     1  ZINC000676204775   -0.2400
     23 C23        -0.6265    4.1304   54.2177 C.2     1  ZINC000676204775    0.0500
     24 C24        -2.1815    5.2889   49.8418 C.ar    1  ZINC000676204775    0.0100
     25 C25        -1.5794    4.7147   48.7581 C.ar    1  ZINC000676204775   -0.1500
     26 C26        -1.7098    3.3460   48.5371 C.ar    1  ZINC000676204775    0.1700
     27 H27         0.7074    1.0325   46.4484 H       1  ZINC000676204775    0.0600
     28 H28        -0.7233    1.0121   45.3896 H       1  ZINC000676204775    0.0700
     29 H29         0.7394    1.8960   44.8922 H       1  ZINC000676204775    0.0800
     30 H30         0.4277    3.4739   46.7794 H       1  ZINC000676204775    0.1000
     31 H31        -2.0811    3.0871   45.0841 H       1  ZINC000676204775    0.0700
     32 H32        -1.6176    4.5857   45.9252 H       1  ZINC000676204775    0.0600
     33 H33        -0.6183    3.9709   44.5867 H       1  ZINC000676204775    0.0800
     34 H34        -2.9016    0.3417   49.3789 H       1  ZINC000676204775    0.2000
     35 H35        -3.6636    2.5947   51.2272 H       1  ZINC000676204775    0.1500
     36 H36        -2.2919    6.1003   53.7533 H       1  ZINC000676204775    0.4200
     37 H37        -2.8742    4.4139   55.8165 H       1  ZINC000676204775    0.0800
     38 H38        -3.8777    3.3126   54.8446 H       1  ZINC000676204775    0.0800
     39 H39        -2.8284    1.9609   56.5360 H       1  ZINC000676204775    0.0700
     40 H40        -1.9697    1.6190   55.0159 H       1  ZINC000676204775    0.0700
     41 H41        -1.0612    3.4544   57.2796 H       1  ZINC000676204775    0.0700
     42 H42        -0.2855    1.9457   56.7307 H       1  ZINC000676204775    0.0700
     43 H43         1.9527    3.6479   56.1768 H       1  ZINC000676204775    0.1800
     44 H44         2.3725    4.9720   54.0248 H       1  ZINC000676204775    0.4400
     45 H45        -2.0744    6.3502   50.0114 H       1  ZINC000676204775    0.1500
     46 H46        -1.0002    5.3202   48.0767 H       1  ZINC000676204775    0.1300
@<TRIPOS>BOND
     1     1     2    1
     2     1    27    1
     3     1    28    1
     4     1    29    1
     5     2     3    1
     6     2     4    1
     7     2    30    1
     8     3    31    1
     9     3    32    1
    10     3    33    1
    11     4    26    1
    12     4     5    1
    13     5     6    2
    14     6     7    1
    15     6    34    1
    16     7    26   ar
    17     7     8   ar
    18     8     9   ar
    19     8    35    1
    20     9    10    1
    21     9    24   ar
    22    10    11    2
    23    10    12    2
    24    10    13   am
    25    13    14    1
    26    13    36    1
    27    14    15    1
    28    14    23    1
    29    14    16    1
    30    16    17    1
    31    16    37    1
    32    16    38    1
    33    17    18    1
    34    17    39    1
    35    17    40    1
    36    18    19    1
    37    18    41    1
    38    18    42    1
    39    19    23    1
    40    19    20    2
    41    20    21    1
    42    20    43    1
    43    21    22    1
    44    21    44    1
    45    22    23    2
    46    24    25   ar
    47    24    45    1
    48    25    26   ar
    49    25    46    1
@<TRIPOS>SUBSTRUCTURE
     1 ZINC000676204775        1 TEMP              0 ****  ****    0 ROOT


##########                                Name:    ZINC000329637067
##########                DOCK_Rotatable_Bonds:                   5
##########                         Heavy_Atoms:                  26
##########                    Molecular_Weight:             362.429
##########                DOCK_Rotatable_Bonds:                   5
##########                       Formal_Charge:           0.0199998
##########                     HBond_Acceptors:                   8
##########                        HBond_Donors:                   0
##########                         Heavy_Atoms:                  26
##########                          Grid_Score:          -28.296179
##########                     Grid_vdw_energy:          -27.598524
##########                      Grid_es_energy:           -0.697656
##########           Internal_energy_repulsive:           32.180958

@<TRIPOS>MOLECULE
ZINC000329637067
 52 54 1 0 0
SMALL
USER_CHARGES


@<TRIPOS>ATOM
      1 C1         -1.6261   -0.0521   48.6280 C.3     1  ZINC000329637067   -0.1300
      2 C2         -1.0272    0.7186   47.4798 C.2     1  ZINC000329637067    0.2200
      3 C3         -1.1120    0.2386   46.2098 C.2     1  ZINC000329637067   -0.2900
      4 C4         -0.5467    0.9762   45.1654 C.2     1  ZINC000329637067    0.2800
      5 C5         -0.6279    0.4658   43.7498 C.3     1  ZINC000329637067   -0.1200
      6 N6          0.0568    2.1191   45.4218 N.2     1  ZINC000329637067   -0.5500
      7 C7          0.1368    2.5853   46.6705 C.2     1  ZINC000329637067    0.6400
      8 O8          0.7008    3.6458   46.8810 O.2     1  ZINC000329637067   -0.5300
      9 N9         -0.4011    1.9042   47.6996 N.am    1  ZINC000329637067   -0.5000
     10 C10        -0.3007    2.4365   49.0607 C.3     1  ZINC000329637067    0.0700
     11 C11        -1.2354    3.6089   49.2119 C.2     1  ZINC000329637067    0.5100
     12 O12        -2.0409    3.8585   48.3401 O.2     1  ZINC000329637067   -0.5200
     13 N13        -1.1763    4.3800   50.3157 N.am    1  ZINC000329637067   -0.6100
     14 C14        -2.0810    5.5264   50.4772 C.3     1  ZINC000329637067    0.1000
     15 C15        -2.8087    5.3950   51.8188 C.3     1  ZINC000329637067   -0.1400
     16 C16        -1.7788    5.2441   52.9406 C.3     1  ZINC000329637067   -0.1000
     17 C17        -0.9549    3.9750   52.7117 C.3     1  ZINC000329637067   -0.1200
     18 H18        -1.6186    3.1107   52.6823 H       1  ZINC000329637067    0.1000
     19 C19         0.0366    3.8095   53.8345 C.2     1  ZINC000329637067    0.5300
     20 O20         1.1172    4.3568   53.7747 O.2     1  ZINC000329637067   -0.5300
     21 N21        -0.2775    3.0533   54.9050 N.am    1  ZINC000329637067   -0.6200
     22 C22         0.6718    2.8821   56.0163 C.3     1  ZINC000329637067    0.0800
     23 C23        -0.0596    3.1877   57.3284 C.3     1  ZINC000329637067    0.0500
     24 O24        -1.2578    2.4104   57.3914 O.3     1  ZINC000329637067   -0.3800
     25 C25        -2.2018    2.7052   56.3591 C.3     1  ZINC000329637067    0.0500
     26 C26        -1.5822    2.3795   54.9999 C.3     1  ZINC000329637067    0.0700
     27 C27        -0.2103    4.0866   51.3830 C.3     1  ZINC000329637067    0.1200
     28 H28        -2.3292    0.5843   49.1653 H       1  ZINC000329637067    0.0900
     29 H29        -2.1490   -0.9281   48.2441 H       1  ZINC000329637067    0.1000
     30 H30        -0.8332   -0.3699   49.3050 H       1  ZINC000329637067    0.0900
     31 H31        -1.6087   -0.6996   46.0112 H       1  ZINC000329637067    0.1600
     32 H32        -1.5366    0.8417   43.2796 H       1  ZINC000329637067    0.1000
     33 H33         0.2408    0.8107   43.1888 H       1  ZINC000329637067    0.0900
     34 H34        -0.6465   -0.6240   43.7570 H       1  ZINC000329637067    0.0900
     35 H35        -0.5732    1.6601   49.7756 H       1  ZINC000329637067    0.1200
     36 H36         0.7227    2.7610   49.2493 H       1  ZINC000329637067    0.1300
     37 H37        -1.5046    6.4515   50.4632 H       1  ZINC000329637067    0.0800
     38 H38        -2.8089    5.5347   49.6659 H       1  ZINC000329637067    0.0900
     39 H39        -3.4106    6.2865   51.9950 H       1  ZINC000329637067    0.0900
     40 H40        -3.4550    4.5175   51.7977 H       1  ZINC000329637067    0.0700
     41 H41        -1.1174    6.1105   52.9454 H       1  ZINC000329637067    0.0800
     42 H42        -2.2933    5.1751   53.8991 H       1  ZINC000329637067    0.0800
     43 H43         1.0387    1.8558   56.0309 H       1  ZINC000329637067    0.0800
     44 H44         1.5085    3.5699   55.8936 H       1  ZINC000329637067    0.1000
     45 H45         0.5835    2.9344   58.1713 H       1  ZINC000329637067    0.1100
     46 H46        -0.3109    4.2476   57.3669 H       1  ZINC000329637067    0.0600
     47 H47        -3.0997    2.1048   56.5045 H       1  ZINC000329637067    0.1100
     48 H48        -2.4608    3.7633   56.3940 H       1  ZINC000329637067    0.0600
     49 H49        -2.2378    2.7319   54.2037 H       1  ZINC000329637067    0.1000
     50 H50        -1.4405    1.3025   54.9097 H       1  ZINC000329637067    0.0800
     51 H51         0.2983    3.1465   51.1691 H       1  ZINC000329637067    0.1000
     52 H52         0.5193    4.8944   51.4398 H       1  ZINC000329637067    0.0800
@<TRIPOS>BOND
     1     1     2    1
     2     1    28    1
     3     1    29    1
     4     1    30    1
     5     2     9    1
     6     2     3    2
     7     3     4    1
     8     3    31    1
     9     4     5    1
    10     4     6    2
    11     5    32    1
    12     5    33    1
    13     5    34    1
    14     6     7    1
    15     7     8    2
    16     7     9   am
    17     9    10    1
    18    10    11    1
    19    10    35    1
    20    10    36    1
    21    11    12    2
    22    11    13   am
    23    13    27    1
    24    13    14    1
    25    14    15    1
    26    14    37    1
    27    14    38    1
    28    15    16    1
    29    15    39    1
    30    15    40    1
    31    16    17    1
    32    16    41    1
    33    16    42    1
    34    17    18    1
    35    17    19    1
    36    17    27    1
    37    19    20    2
    38    19    21   am
    39    21    26    1
    40    21    22    1
    41    22    23    1
    42    22    43    1
    43    22    44    1
    44    23    24    1
    45    23    45    1
    46    23    46    1
    47    24    25    1
    48    25    26    1
    49    25    47    1
    50    25    48    1
    51    26    49    1
    52    26    50    1
    53    27    51    1
    54    27    52    1
@<TRIPOS>SUBSTRUCTURE
     1 ZINC000329637067        1 TEMP              0 ****  ****    0 ROOT


##########                                Name:    ZINC001011267435
##########                DOCK_Rotatable_Bonds:                   7
##########                         Heavy_Atoms:                  24
##########                    Molecular_Weight:             331.458
##########                DOCK_Rotatable_Bonds:                   7
##########                       Formal_Charge:        -4.47035e-08
##########                     HBond_Acceptors:                   5
##########                        HBond_Donors:                   0
##########                         Heavy_Atoms:                  24
##########                          Grid_Score:          -28.293955
##########                     Grid_vdw_energy:          -27.228697
##########                      Grid_es_energy:           -1.065258
##########           Internal_energy_repulsive:           35.236443

@<TRIPOS>MOLECULE
ZINC001011267435
 53 54 1 0 0
SMALL
USER_CHARGES


@<TRIPOS>ATOM
      1 C1          5.7333    0.5354   43.9240 C.3     1  ZINC001011267435   -0.1500
      2 C2          4.2676    0.1455   44.1252 C.3     1  ZINC001011267435   -0.1200
      3 C3          3.4234    1.4092   44.3018 C.3     1  ZINC001011267435   -0.0700
      4 C4          1.9795    1.0253   44.4987 C.ar    1  ZINC001011267435    0.1300
      5 C5          1.4799    0.8870   45.7791 C.ar    1  ZINC001011267435   -0.1200
      6 C6          0.1384    0.5304   45.9486 C.ar    1  ZINC001011267435   -0.0800
      7 C7         -0.4417    0.3709   47.3023 C.2     1  ZINC001011267435    0.5600
      8 O8         -0.7173   -0.7369   47.7187 O.2     1  ZINC001011267435   -0.5200
      9 N9         -0.6639    1.4547   48.0722 N.am    1  ZINC001011267435   -0.6100
     10 C10        -0.3412    2.8011   47.5794 C.3     1  ZINC001011267435    0.0700
     11 C11        -1.5997    3.6725   47.6746 C.3     1  ZINC001011267435    0.1000
     12 N12        -2.1694    3.5290   49.0217 N.am    1  ZINC001011267435   -0.6200
     13 C13        -2.3924    4.6128   49.7912 C.2     1  ZINC001011267435    0.5300
     14 O14        -2.1225    5.7190   49.3735 O.2     1  ZINC001011267435   -0.5300
     15 C15        -2.9772    4.4502   51.1705 C.3     1  ZINC001011267435   -0.1100
     16 H16        -3.7608    3.6930   51.1460 H       1  ZINC001011267435    0.0900
     17 C17        -3.5697    5.7826   51.6337 C.3     1  ZINC001011267435   -0.1500
     18 C18        -1.8783    4.0155   52.1424 C.3     1  ZINC001011267435   -0.0800
     19 C19        -0.9911    5.2156   52.4791 C.3     1  ZINC001011267435   -0.1500
     20 C20        -2.5156    3.4768   53.4248 C.3     1  ZINC001011267435   -0.1500
     21 C21        -2.4922    2.1826   49.5145 C.3     1  ZINC001011267435    0.0900
     22 C22        -1.2389    1.3116   49.4171 C.3     1  ZINC001011267435    0.1000
     23 C23        -0.6401    0.3291   44.8050 C.ar    1  ZINC001011267435   -0.1600
     24 C24        -0.0585    0.4889   43.5619 C.ar    1  ZINC001011267435    0.1100
     25 N25         1.2090    0.8312   43.4469 N.ar    1  ZINC001011267435   -0.4600
     26 H26         5.8244    1.1603   43.0356 H       1  ZINC001011267435    0.0600
     27 H27         6.0850    1.0884   44.7949 H       1  ZINC001011267435    0.0500
     28 H28         6.3347   -0.3650   43.7982 H       1  ZINC001011267435    0.0600
     29 H29         3.9159   -0.4076   43.2543 H       1  ZINC001011267435    0.0700
     30 H30         4.1765   -0.4794   45.0137 H       1  ZINC001011267435    0.0600
     31 H31         3.7746    1.9619   45.1733 H       1  ZINC001011267435    0.0800
     32 H32         3.5152    2.0345   43.4138 H       1  ZINC001011267435    0.0900
     33 H33         2.1159    1.0515   46.6363 H       1  ZINC001011267435    0.1400
     34 H34         0.4507    3.2343   48.1904 H       1  ZINC001011267435    0.0800
     35 H35        -0.0148    2.7421   46.5411 H       1  ZINC001011267435    0.1100
     36 H36        -1.3368    4.7154   47.4978 H       1  ZINC001011267435    0.1100
     37 H37        -2.3282    3.3454   46.9326 H       1  ZINC001011267435    0.0700
     38 H38        -3.9181    5.6875   52.6621 H       1  ZINC001011267435    0.0800
     39 H39        -2.8060    6.5584   51.5790 H       1  ZINC001011267435    0.0600
     40 H40        -4.4071    6.0513   50.9898 H       1  ZINC001011267435    0.0600
     41 H41        -1.2736    3.2346   51.6813 H       1  ZINC001011267435    0.0800
     42 H42        -0.2083    4.9059   53.1714 H       1  ZINC001011267435    0.0600
     43 H43        -0.5371    5.5994   51.5654 H       1  ZINC001011267435    0.0600
     44 H44        -1.5959    5.9966   52.9401 H       1  ZINC001011267435    0.0600
     45 H45        -3.1477    2.6218   53.1850 H       1  ZINC001011267435    0.0600
     46 H46        -1.7328    3.1671   54.1172 H       1  ZINC001011267435    0.0600
     47 H47        -3.1204    4.2577   53.8858 H       1  ZINC001011267435    0.0500
     48 H48        -2.8185    2.2415   50.5528 H       1  ZINC001011267435    0.1000
     49 H49        -3.2841    1.7494   48.9035 H       1  ZINC001011267435    0.0800
     50 H50        -1.5032    0.2691   49.5942 H       1  ZINC001011267435    0.1100
     51 H51        -0.5086    1.6373   50.1579 H       1  ZINC001011267435    0.0800
     52 H52        -1.6805    0.0523   44.8920 H       1  ZINC001011267435    0.1500
     53 H53        -0.6516    0.3352   42.6726 H       1  ZINC001011267435    0.1700
@<TRIPOS>BOND
     1     1     2    1
     2     1    26    1
     3     1    27    1
     4     1    28    1
     5     2     3    1
     6     2    29    1
     7     2    30    1
     8     3     4    1
     9     3    31    1
    10     3    32    1
    11     4    25   ar
    12     4     5   ar
    13     5     6   ar
    14     5    33    1
    15     6     7    1
    16     6    23   ar
    17     7     8    2
    18     7     9   am
    19     9    22    1
    20     9    10    1
    21    10    11    1
    22    10    34    1
    23    10    35    1
    24    11    12    1
    25    11    36    1
    26    11    37    1
    27    12    13   am
    28    12    21    1
    29    13    14    2
    30    13    15    1
    31    15    16    1
    32    15    17    1
    33    15    18    1
    34    17    38    1
    35    17    39    1
    36    17    40    1
    37    18    19    1
    38    18    20    1
    39    18    41    1
    40    19    42    1
    41    19    43    1
    42    19    44    1
    43    20    45    1
    44    20    46    1
    45    20    47    1
    46    21    22    1
    47    21    48    1
    48    21    49    1
    49    22    50    1
    50    22    51    1
    51    23    24   ar
    52    23    52    1
    53    24    25   ar
    54    24    53    1
@<TRIPOS>SUBSTRUCTURE
     1 ZINC001011267435        1 TEMP              0 ****  ****    0 ROOT


##########                                Name:    ZINC000543020509
##########                DOCK_Rotatable_Bonds:                   5
##########                         Heavy_Atoms:                  26
##########                    Molecular_Weight:              366.81
##########                DOCK_Rotatable_Bonds:                   5
##########                       Formal_Charge:               -0.02
##########                     HBond_Acceptors:                   8
##########                        HBond_Donors:                   1
##########                         Heavy_Atoms:                  26
##########                          Grid_Score:          -28.266520
##########                     Grid_vdw_energy:          -28.107386
##########                      Grid_es_energy:           -0.159133
##########           Internal_energy_repulsive:            9.813861

@<TRIPOS>MOLECULE
ZINC000543020509
 41 43 1 0 0
SMALL
USER_CHARGES


@<TRIPOS>ATOM
      1 C1        -10.7609   -2.3922   61.3443 C.3     1  ZINC000543020509    0.0800
      2 N2         -9.6877   -1.4105   61.1689 N.pl3   1  ZINC000543020509   -0.6200
      3 C3         -8.8433   -1.0373   62.3065 C.3     1  ZINC000543020509    0.0900
      4 C4         -9.4701   -0.8325   59.9215 C.ar    1  ZINC000543020509    0.2500
      5 C5        -10.3714   -1.0283   58.8765 C.ar    1  ZINC000543020509   -0.2200
      6 C6        -10.1237   -0.4385   57.6507 C.ar    1  ZINC000543020509    0.1400
      7 N7         -9.0526    0.3022   57.4590 N.ar    1  ZINC000543020509   -0.5000
      8 C8         -8.1665    0.5163   58.4257 C.ar    1  ZINC000543020509    0.1100
      9 C9         -6.9776    1.3584   58.1580 C.2     1  ZINC000543020509    0.5900
     10 O10        -6.3219    1.7957   59.0832 O.2     1  ZINC000543020509   -0.5000
     11 N11        -6.6230    1.6397   56.8886 N.am    1  ZINC000543020509   -0.6200
     12 C12        -5.4988    2.4340   56.6356 C.2     1  ZINC000543020509    0.3200
     13 N13        -4.3823    2.0313   56.0754 N.2     1  ZINC000543020509   -0.3100
     14 N14        -3.5099    3.1249   56.0020 N.pl3   1  ZINC000543020509   -0.3300
     15 C15        -2.2180    3.1115   55.4703 C.ar    1  ZINC000543020509    0.2200
     16 C16        -1.1824    2.5118   56.1715 C.ar    1  ZINC000543020509   -0.1300
     17 C17         0.0945    2.4990   55.6446 C.ar    1  ZINC000543020509   -0.0500
     18 C18         0.3513    3.0838   54.4149 C.ar    1  ZINC000543020509   -0.0600
     19 Cl19        1.9613    3.0599   53.7659 Cl      1  ZINC000543020509   -0.0500
     20 C20        -0.6674    3.6847   53.7036 C.ar    1  ZINC000543020509   -0.0400
     21 C21        -1.9637    3.6997   54.2222 C.ar    1  ZINC000543020509   -0.0200
     22 C22        -3.0253    4.3214   53.4894 C.1     1  ZINC000543020509    0.2500
     23 N23        -3.8675    4.8145   52.9080 N.1     1  ZINC000543020509   -0.3800
     24 C24        -4.1423    4.2010   56.5388 C.2     1  ZINC000543020509    0.0700
     25 C25        -5.3726    3.8018   56.9322 C.2     1  ZINC000543020509   -0.2400
     26 C26        -8.3477   -0.0381   59.6877 C.ar    1  ZINC000543020509   -0.1800
     27 H27       -11.6807   -1.8788   61.6244 H       1  ZINC000543020509    0.0600
     28 H28       -10.9161   -2.9316   60.4099 H       1  ZINC000543020509    0.0700
     29 H29       -10.4844   -3.0965   62.1288 H       1  ZINC000543020509    0.0700
     30 H30        -9.1613   -1.5887   63.1914 H       1  ZINC000543020509    0.0800
     31 H31        -7.8042   -1.2783   62.0823 H       1  ZINC000543020509    0.0600
     32 H32        -8.9362    0.0327   62.4923 H       1  ZINC000543020509    0.0600
     33 H33       -11.2533   -1.6343   59.0224 H       1  ZINC000543020509    0.1400
     34 H34       -10.8193   -0.5879   56.8383 H       1  ZINC000543020509    0.1700
     35 H35        -7.1470    1.2916   56.1502 H       1  ZINC000543020509    0.4300
     36 H36        -1.3747    2.0542   57.1306 H       1  ZINC000543020509    0.1500
     37 H37         0.8974    2.0310   56.1948 H       1  ZINC000543020509    0.1500
     38 H38        -0.4629    4.1392   52.7455 H       1  ZINC000543020509    0.1500
     39 H39        -3.7365    5.1976   56.6309 H       1  ZINC000543020509    0.1900
     40 H40        -6.1234    4.4228   57.3980 H       1  ZINC000543020509    0.1800
     41 H41        -7.6267    0.1373   60.4725 H       1  ZINC000543020509    0.1500
@<TRIPOS>BOND
     1     1     2    1
     2     1    27    1
     3     1    28    1
     4     1    29    1
     5     2     3    1
     6     2     4    1
     7     3    30    1
     8     3    31    1
     9     3    32    1
    10     4    26   ar
    11     4     5   ar
    12     5     6   ar
    13     5    33    1
    14     6     7   ar
    15     6    34    1
    16     7     8   ar
    17     8     9    1
    18     8    26   ar
    19     9    10    2
    20     9    11   am
    21    11    12    1
    22    11    35    1
    23    12    25    1
    24    12    13    2
    25    13    14    1
    26    14    15    1
    27    14    24    1
    28    15    21   ar
    29    15    16   ar
    30    16    17   ar
    31    16    36    1
    32    17    18   ar
    33    17    37    1
    34    18    19    1
    35    18    20   ar
    36    20    21   ar
    37    20    38    1
    38    21    22    1
    39    22    23    3
    40    24    25    2
    41    24    39    1
    42    25    40    1
    43    26    41    1
@<TRIPOS>SUBSTRUCTURE
     1 ZINC000543020509        1 TEMP              0 ****  ****    0 ROOT


##########                                Name:    ZINC000298969660
##########                DOCK_Rotatable_Bonds:                  10
##########                         Heavy_Atoms:                  29
##########                    Molecular_Weight:             397.474
##########                DOCK_Rotatable_Bonds:                  10
##########                       Formal_Charge:          -0.0100008
##########                     HBond_Acceptors:                   7
##########                        HBond_Donors:                   2
##########                         Heavy_Atoms:                  29
##########                          Grid_Score:          -28.257977
##########                     Grid_vdw_energy:          -26.707445
##########                      Grid_es_energy:           -1.550531
##########           Internal_energy_repulsive:          163.812653

@<TRIPOS>MOLECULE
ZINC000298969660
 56 58 1 0 0
SMALL
USER_CHARGES


@<TRIPOS>ATOM
      1 C1         -0.7163   -0.0952   48.8107 C.3     1  ZINC000298969660    0.0800
      2 N2         -1.3620    0.8763   47.9245 N.am    1  ZINC000298969660   -0.6300
      3 C3         -1.3215    0.6833   46.4729 C.3     1  ZINC000298969660    0.1400
      4 C4         -0.1240    1.4374   45.8913 C.3     1  ZINC000298969660    0.0700
      5 H5         -0.2517    2.5068   46.0585 H       1  ZINC000298969660    0.0500
      6 C6         -0.0290    1.1633   44.3881 C.3     1  ZINC000298969660   -0.1500
      7 C7          1.2062    1.8725   43.8246 C.3     1  ZINC000298969660   -0.1200
      8 C8          2.4475    1.3918   44.5827 C.3     1  ZINC000298969660   -0.1600
      9 C9          2.2569    1.6570   46.0784 C.3     1  ZINC000298969660    0.0600
     10 O10         1.0746    0.9948   46.5316 O.3     1  ZINC000298969660   -0.3600
     11 C11        -1.9933    1.9474   48.4446 C.2     1  ZINC000298969660    0.7100
     12 O12        -2.5305    2.7528   47.7092 O.2     1  ZINC000298969660   -0.5400
     13 N13        -2.0292    2.1257   49.7801 N.am    1  ZINC000298969660   -0.6900
     14 C14        -2.6847    3.2378   50.3201 C.ar    1  ZINC000298969660    0.2000
     15 C15        -2.3560    4.5161   49.8883 C.ar    1  ZINC000298969660   -0.1800
     16 C16        -3.0028    5.6143   50.4218 C.ar    1  ZINC000298969660   -0.0600
     17 C17        -3.9781    5.4439   51.3856 C.ar    1  ZINC000298969660   -0.2300
     18 C18        -4.3108    4.1685   51.8210 C.ar    1  ZINC000298969660    0.1500
     19 O19        -5.2700    4.0026   52.7693 O.3     1  ZINC000298969660   -0.2900
     20 C20        -4.9186    3.2307   53.9195 C.3     1  ZINC000298969660    0.0400
     21 C21        -5.7310    3.6926   55.1017 C.2     1  ZINC000298969660    0.5100
     22 O22        -5.4128    4.6982   55.7006 O.2     1  ZINC000298969660   -0.4900
     23 N23        -6.8111    2.9883   55.4936 N.am    1  ZINC000298969660   -0.6700
     24 C24        -7.5655    3.4171   56.5913 C.ar    1  ZINC000298969660    0.1400
     25 C25        -8.6749    2.6888   57.0005 C.ar    1  ZINC000298969660   -0.1400
     26 C26        -9.4174    3.1148   58.0843 C.ar    1  ZINC000298969660   -0.1000
     27 C27        -9.0576    4.2654   58.7615 C.ar    1  ZINC000298969660   -0.1300
     28 C28        -7.9537    4.9932   58.3563 C.ar    1  ZINC000298969660   -0.1000
     29 C29        -7.2031    4.5689   57.2773 C.ar    1  ZINC000298969660   -0.1200
     30 C30        -3.6681    3.0643   51.2841 C.ar    1  ZINC000298969660   -0.1500
     31 H31         0.3182    0.2020   48.9835 H       1  ZINC000298969660    0.0600
     32 H32        -1.2481   -0.1292   49.7617 H       1  ZINC000298969660    0.0700
     33 H33        -0.7383   -1.0812   48.3467 H       1  ZINC000298969660    0.0800
     34 H34        -1.2247   -0.3794   46.2502 H       1  ZINC000298969660    0.1000
     35 H35        -2.2412    1.0650   46.0297 H       1  ZINC000298969660    0.0900
     36 H36         0.0580    0.0902   44.2182 H       1  ZINC000298969660    0.0800
     37 H37        -0.9234    1.5403   43.8920 H       1  ZINC000298969660    0.0700
     38 H38         1.3113    1.6360   42.7658 H       1  ZINC000298969660    0.0700
     39 H39         1.0970    2.9498   43.9499 H       1  ZINC000298969660    0.0600
     40 H40         2.5845    0.3233   44.4168 H       1  ZINC000298969660    0.0700
     41 H41         3.3242    1.9322   44.2257 H       1  ZINC000298969660    0.0700
     42 H42         3.1189    1.2781   46.6274 H       1  ZINC000298969660    0.0900
     43 H43         2.1605    2.7295   46.2480 H       1  ZINC000298969660    0.0400
     44 H44        -1.6006    1.4831   50.3668 H       1  ZINC000298969660    0.4100
     45 H45        -1.5939    4.6520   49.1350 H       1  ZINC000298969660    0.1300
     46 H46        -2.7454    6.6076   50.0852 H       1  ZINC000298969660    0.1300
     47 H47        -4.4821    6.3041   51.8008 H       1  ZINC000298969660    0.1300
     48 H48        -5.1235    2.1777   53.7269 H       1  ZINC000298969660    0.1000
     49 H49        -3.8579    3.3611   54.1343 H       1  ZINC000298969660    0.1000
     50 H50        -7.0656    2.1841   55.0147 H       1  ZINC000298969660    0.4100
     51 H51        -8.9568    1.7904   56.4715 H       1  ZINC000298969660    0.1300
     52 H52       -10.2802    2.5487   58.4030 H       1  ZINC000298969660    0.1300
     53 H53        -9.6400    4.5966   59.6085 H       1  ZINC000298969660    0.1200
     54 H54        -7.6757    5.8918   58.8868 H       1  ZINC000298969660    0.1300
     55 H55        -6.3412    5.1377   56.9613 H       1  ZINC000298969660    0.1300
     56 H56        -3.9256    2.0714   51.6216 H       1  ZINC000298969660    0.1500
@<TRIPOS>BOND
     1     1     2    1
     2     1    31    1
     3     1    32    1
     4     1    33    1
     5     2     3    1
     6     2    11   am
     7     3     4    1
     8     3    34    1
     9     3    35    1
    10     4     5    1
    11     4    10    1
    12     4     6    1
    13     6     7    1
    14     6    36    1
    15     6    37    1
    16     7     8    1
    17     7    38    1
    18     7    39    1
    19     8     9    1
    20     8    40    1
    21     8    41    1
    22     9    10    1
    23     9    42    1
    24     9    43    1
    25    11    12    2
    26    11    13   am
    27    13    14    1
    28    13    44    1
    29    14    30   ar
    30    14    15   ar
    31    15    16   ar
    32    15    45    1
    33    16    17   ar
    34    16    46    1
    35    17    18   ar
    36    17    47    1
    37    18    19    1
    38    18    30   ar
    39    19    20    1
    40    20    21    1
    41    20    48    1
    42    20    49    1
    43    21    22    2
    44    21    23   am
    45    23    24    1
    46    23    50    1
    47    24    29   ar
    48    24    25   ar
    49    25    26   ar
    50    25    51    1
    51    26    27   ar
    52    26    52    1
    53    27    28   ar
    54    27    53    1
    55    28    29   ar
    56    28    54    1
    57    29    55    1
    58    30    56    1
@<TRIPOS>SUBSTRUCTURE
     1 ZINC000298969660        1 TEMP              0 ****  ****    0 ROOT


##########                                Name:    ZINC000438893617
##########                DOCK_Rotatable_Bonds:                   5
##########                         Heavy_Atoms:                  29
##########                    Molecular_Weight:             412.596
##########                DOCK_Rotatable_Bonds:                   5
##########                       Formal_Charge:           0.0600001
##########                     HBond_Acceptors:                   5
##########                        HBond_Donors:                   0
##########                         Heavy_Atoms:                  29
##########                          Grid_Score:          -28.257685
##########                     Grid_vdw_energy:          -26.243856
##########                      Grid_es_energy:           -2.013828
##########           Internal_energy_repulsive:          166.965042

@<TRIPOS>MOLECULE
ZINC000438893617
 61 66 1 0 0
SMALL
USER_CHARGES


@<TRIPOS>ATOM
      1 C1         -3.8826    2.2896   56.5211 C.3     1  ZINC000438893617   -0.1000
      2 C2         -4.2158    2.9112   55.1895 C.2     1  ZINC000438893617   -0.0900
      3 C3         -3.3210    3.5915   54.4712 C.2     1  ZINC000438893617   -0.1600
      4 C4         -1.8880    3.8321   54.8709 C.3     1  ZINC000438893617   -0.0400
      5 H5         -1.2388    2.9570   54.8426 H       1  ZINC000438893617    0.1400
      6 C6         -1.6238    4.8729   55.9607 C.3     1  ZINC000438893617   -0.1400
      7 C7         -1.2696    5.1826   54.5042 C.3     1  ZINC000438893617   -0.1800
      8 H8         -1.8992    5.8972   53.9741 H       1  ZINC000438893617    0.1300
      9 C9          0.1907    5.2018   54.1321 C.2     1  ZINC000438893617    0.5500
     10 O10         1.0254    5.4808   54.9665 O.2     1  ZINC000438893617   -0.5300
     11 N11         0.5689    4.9090   52.8720 N.am    1  ZINC000438893617   -0.6100
     12 C12         1.9898    4.9160   52.4969 C.3     1  ZINC000438893617    0.0900
     13 C13         2.3433    3.5523   51.8905 C.3     1  ZINC000438893617    0.1000
     14 N14         1.3421    3.2196   50.8673 N.am    1  ZINC000438893617   -0.6100
     15 C15         1.7204    2.9257   49.6075 C.2     1  ZINC000438893617    0.5300
     16 O16         2.8961    2.9345   49.3097 O.2     1  ZINC000438893617   -0.5300
     17 C17         0.6825    2.5864   48.5689 C.3     1  ZINC000438893617   -0.0700
     18 C18        -0.2390    3.7892   48.3568 C.3     1  ZINC000438893617   -0.1100
     19 C19        -1.2927    3.4447   47.3024 C.3     1  ZINC000438893617   -0.0800
     20 C20        -2.1181    2.2475   47.7783 C.3     1  ZINC000438893617   -0.1100
     21 C21        -1.1965    1.0448   47.9903 C.3     1  ZINC000438893617   -0.0800
     22 C22        -0.5034    0.6946   46.6720 C.3     1  ZINC000438893617   -0.1100
     23 C23         0.3219    1.8918   46.1961 C.3     1  ZINC000438893617   -0.0900
     24 C24        -0.5997    3.0946   45.9840 C.3     1  ZINC000438893617   -0.1100
     25 C25         1.3756    2.2364   47.2506 C.3     1  ZINC000438893617   -0.0900
     26 C26        -0.1429    1.3892   49.0448 C.3     1  ZINC000438893617   -0.1200
     27 C27        -0.0788    3.2126   51.2424 C.3     1  ZINC000438893617    0.0700
     28 C28        -0.4318    4.5708   51.8503 C.3     1  ZINC000438893617    0.1000
     29 S29        -4.0692    4.1641   52.9860 S.3     1  ZINC000438893617    0.1000
     30 C30        -5.6004    3.4257   53.4373 C.2     1  ZINC000438893617   -0.2100
     31 C31        -5.4721    2.8148   54.6161 C.2     1  ZINC000438893617   -0.1300
     32 H32        -3.5193    1.2735   56.3670 H       1  ZINC000438893617    0.0700
     33 H33        -3.1110    2.8802   57.0150 H       1  ZINC000438893617    0.0700
     34 H34        -4.7764    2.2652   57.1446 H       1  ZINC000438893617    0.0700
     35 H35        -2.4864    5.3836   56.3887 H       1  ZINC000438893617    0.1100
     36 H36        -0.8004    4.6827   56.6493 H       1  ZINC000438893617    0.1100
     37 H37         2.1704    5.7008   51.7624 H       1  ZINC000438893617    0.0800
     38 H38         2.6010    5.0922   53.3819 H       1  ZINC000438893617    0.1000
     39 H39         3.3316    3.6003   51.4333 H       1  ZINC000438893617    0.1100
     40 H40         2.3352    2.7916   52.6711 H       1  ZINC000438893617    0.0700
     41 H41        -0.7329    4.0386   49.2960 H       1  ZINC000438893617    0.0800
     42 H42         0.3490    4.6421   48.0177 H       1  ZINC000438893617    0.0700
     43 H43        -1.9493    4.3016   47.1513 H       1  ZINC000438893617    0.0800
     44 H44        -2.6119    2.4969   48.7174 H       1  ZINC000438893617    0.0600
     45 H45        -2.8688    2.0021   47.0271 H       1  ZINC000438893617    0.0700
     46 H46        -1.7845    0.1919   48.3293 H       1  ZINC000438893617    0.0800
     47 H47         0.1531   -0.1623   46.8230 H       1  ZINC000438893617    0.0600
     48 H48        -1.2541    0.4492   45.9208 H       1  ZINC000438893617    0.0700
     49 H49         0.8158    1.6424   45.2569 H       1  ZINC000438893617    0.0700
     50 H50        -1.3503    2.8492   45.2328 H       1  ZINC000438893617    0.0700
     51 H51        -0.0117    3.9475   45.6450 H       1  ZINC000438893617    0.0600
     52 H52         1.9636    3.0893   46.9116 H       1  ZINC000438893617    0.0700
     53 H53         2.0322    1.3795   47.4017 H       1  ZINC000438893617    0.0700
     54 H54         0.5137    0.5324   49.1958 H       1  ZINC000438893617    0.0700
     55 H55        -0.6366    1.6386   49.9839 H       1  ZINC000438893617    0.0800
     56 H56        -0.6900    3.0364   50.3574 H       1  ZINC000438893617    0.1300
     57 H57        -0.2593    2.4277   51.9770 H       1  ZINC000438893617    0.0800
     58 H58        -1.4203    4.5214   52.3069 H       1  ZINC000438893617    0.1100
     59 H59        -0.4237    5.3334   51.0714 H       1  ZINC000438893617    0.0700
     60 H60        -6.5048    3.4580   52.8480 H       1  ZINC000438893617    0.1700
     61 H61        -6.2887    2.2915   55.0912 H       1  ZINC000438893617    0.1400
@<TRIPOS>BOND
     1     1     2    1
     2     1    32    1
     3     1    33    1
     4     1    34    1
     5     2    31    1
     6     2     3    2
     7     3     4    1
     8     3    29    1
     9     4     5    1
    10     4     7    1
    11     4     6    1
    12     6     7    1
    13     6    35    1
    14     6    36    1
    15     7     8    1
    16     7     9    1
    17     9    10    2
    18     9    11   am
    19    11    28    1
    20    11    12    1
    21    12    13    1
    22    12    37    1
    23    12    38    1
    24    13    14    1
    25    13    39    1
    26    13    40    1
    27    14    15   am
    28    14    27    1
    29    15    16    2
    30    15    17    1
    31    17    25    1
    32    17    26    1
    33    17    18    1
    34    18    19    1
    35    18    41    1
    36    18    42    1
    37    19    24    1
    38    19    20    1
    39    19    43    1
    40    20    21    1
    41    20    44    1
    42    20    45    1
    43    21    22    1
    44    21    26    1
    45    21    46    1
    46    22    23    1
    47    22    47    1
    48    22    48    1
    49    23    24    1
    50    23    25    1
    51    23    49    1
    52    24    50    1
    53    24    51    1
    54    25    52    1
    55    25    53    1
    56    26    54    1
    57    26    55    1
    58    27    28    1
    59    27    56    1
    60    27    57    1
    61    28    58    1
    62    28    59    1
    63    29    30    1
    64    30    31    2
    65    30    60    1
    66    31    61    1
@<TRIPOS>SUBSTRUCTURE
     1 ZINC000438893617        1 TEMP              0 ****  ****    0 ROOT


##########                                Name:    ZINC000883773972
##########                DOCK_Rotatable_Bonds:                   4
##########                         Heavy_Atoms:                  23
##########                    Molecular_Weight:             343.447
##########                DOCK_Rotatable_Bonds:                   4
##########                       Formal_Charge:                0.01
##########                     HBond_Acceptors:                   8
##########                        HBond_Donors:                   1
##########                         Heavy_Atoms:                  23
##########                          Grid_Score:          -28.253986
##########                     Grid_vdw_energy:          -27.375927
##########                      Grid_es_energy:           -0.878060
##########           Internal_energy_repulsive:            4.989795

@<TRIPOS>MOLECULE
ZINC000883773972
 48 50 1 0 0
SMALL
USER_CHARGES


@<TRIPOS>ATOM
      1 C1         -5.4802    3.2841   57.1911 C.3     1  ZINC000883773972   -0.1700
      2 C2         -5.0480    4.5455   56.4887 C.2     1  ZINC000883773972    0.5300
      3 O3         -5.1525    5.6169   57.0475 O.2     1  ZINC000883773972   -0.5400
      4 N4         -4.5454    4.4830   55.2398 N.am    1  ZINC000883773972   -0.6200
      5 C5         -4.3586    3.2703   54.4262 C.3     1  ZINC000883773972    0.1100
      6 C6         -4.5421    3.6987   52.9608 C.3     1  ZINC000883773972   -0.1100
      7 H7         -5.5165    3.4045   52.5710 H       1  ZINC000883773972    0.1000
      8 C8         -3.3911    3.1283   52.1153 C.3     1  ZINC000883773972    0.1300
      9 N9         -2.8765    4.2459   51.3070 N.am    1  ZINC000883773972   -0.6400
     10 C10        -2.3325    4.1664   50.0764 C.2     1  ZINC000883773972    0.7300
     11 O11        -1.9462    5.1740   49.5162 O.2     1  ZINC000883773972   -0.5800
     12 N12        -2.2167    2.9699   49.4668 N.am    1  ZINC000883773972   -0.7400
     13 C13        -1.6269    2.8838   48.1285 C.3     1  ZINC000883773972    0.1800
     14 H14        -1.7564    3.8361   47.6142 H       1  ZINC000883773972    0.1100
     15 C15        -0.1381    2.5722   48.2502 C.3     1  ZINC000883773972   -0.1500
     16 C16         0.5550    2.7220   46.8990 C.3     1  ZINC000883773972   -0.1000
     17 C17         0.1138    1.5990   45.9576 C.3     1  ZINC000883773972   -0.5600
     18 H18         0.3176    0.6336   46.4208 H       1  ZINC000883773972    0.1400
     19 C19         0.8810    1.7060   44.6382 C.3     1  ZINC000883773972   -0.1400
     20 S20        -1.6682    1.7577   45.6420 S.o2    1  ZINC000883773972    2.4200
     21 O21        -1.9129    3.0221   45.0415 O.2     1  ZINC000883773972   -0.9200
     22 O22        -2.1213    0.5790   44.9904 O.2     1  ZINC000883773972   -0.9300
     23 C23        -2.3273    1.7785   47.3350 C.3     1  ZINC000883773972   -0.6300
     24 C24        -3.0722    5.4673   52.1052 C.3     1  ZINC000883773972    0.1100
     25 C25        -4.3574    5.2362   52.9582 C.3     1  ZINC000883773972   -0.1100
     26 H26        -5.2165    5.7685   52.5499 H       1  ZINC000883773972    0.1000
     27 C27        -4.0822    5.6146   54.4201 C.3     1  ZINC000883773972    0.1100
     28 H28        -5.8567    3.5316   58.1836 H       1  ZINC000883773972    0.0900
     29 H29        -6.2676    2.7987   56.6145 H       1  ZINC000883773972    0.0900
     30 H30        -4.6289    2.6096   57.2832 H       1  ZINC000883773972    0.0900
     31 H31        -3.3559    2.8700   54.5763 H       1  ZINC000883773972    0.0800
     32 H32        -5.1047    2.5219   54.6935 H       1  ZINC000883773972    0.0900
     33 H33        -2.6050    2.7432   52.7648 H       1  ZINC000883773972    0.0700
     34 H34        -3.7616    2.3358   51.4651 H       1  ZINC000883773972    0.0900
     35 H35        -2.5237    2.1659   49.9142 H       1  ZINC000883773972    0.4000
     36 H36         0.3154    3.2592   48.9646 H       1  ZINC000883773972    0.0900
     37 H37        -0.0130    1.5499   48.6068 H       1  ZINC000883773972    0.0800
     38 H38         0.2912    3.6850   46.4620 H       1  ZINC000883773972    0.0900
     39 H39         1.6349    2.6734   47.0391 H       1  ZINC000883773972    0.0900
     40 H40         1.9501    1.6182   44.8314 H       1  ZINC000883773972    0.0800
     41 H41         0.5658    0.9057   43.9687 H       1  ZINC000883773972    0.0700
     42 H42         0.6735    2.6705   44.1745 H       1  ZINC000883773972    0.0800
     43 H43        -2.1447    0.8142   47.8094 H       1  ZINC000883773972    0.1400
     44 H44        -3.3990    1.9755   47.3068 H       1  ZINC000883773972    0.1400
     45 H45        -2.2110    5.6334   52.7522 H       1  ZINC000883773972    0.0800
     46 H46        -3.2178    6.3245   51.4478 H       1  ZINC000883773972    0.0800
     47 H47        -4.6158    6.5298   54.6765 H       1  ZINC000883773972    0.0900
     48 H48        -3.0118    5.7487   54.5767 H       1  ZINC000883773972    0.0700
@<TRIPOS>BOND
     1     1     2    1
     2     1    28    1
     3     1    29    1
     4     1    30    1
     5     2     3    2
     6     2     4   am
     7     4    27    1
     8     4     5    1
     9     5     6    1
    10     5    31    1
    11     5    32    1
    12     6     7    1
    13     6    25    1
    14     6     8    1
    15     8     9    1
    16     8    33    1
    17     8    34    1
    18     9    10   am
    19     9    24    1
    20    10    11    2
    21    10    12   am
    22    12    13    1
    23    12    35    1
    24    13    14    1
    25    13    23    1
    26    13    15    1
    27    15    16    1
    28    15    36    1
    29    15    37    1
    30    16    17    1
    31    16    38    1
    32    16    39    1
    33    17    18    1
    34    17    19    1
    35    17    20    1
    36    19    40    1
    37    19    41    1
    38    19    42    1
    39    20    21    2
    40    20    22    2
    41    20    23    1
    42    23    43    1
    43    23    44    1
    44    24    25    1
    45    24    45    1
    46    24    46    1
    47    25    26    1
    48    25    27    1
    49    27    47    1
    50    27    48    1
@<TRIPOS>SUBSTRUCTURE
     1 ZINC000883773972        1 TEMP              0 ****  ****    0 ROOT


##########                                Name:    ZINC000464706598
##########                DOCK_Rotatable_Bonds:                   4
##########                         Heavy_Atoms:                  26
##########                    Molecular_Weight:             412.286
##########                DOCK_Rotatable_Bonds:                   4
##########                       Formal_Charge:           0.0100001
##########                     HBond_Acceptors:                   5
##########                        HBond_Donors:                   0
##########                         Heavy_Atoms:                  26
##########                          Grid_Score:          -28.252670
##########                     Grid_vdw_energy:          -27.003817
##########                      Grid_es_energy:           -1.248855
##########           Internal_energy_repulsive:           59.174904

@<TRIPOS>MOLECULE
ZINC000464706598
 44 47 1 0 0
SMALL
USER_CHARGES


@<TRIPOS>ATOM
      1 O1          0.2320    1.6805   49.1473 O.2     1  ZINC000464706598   -0.5000
      2 C2         -0.4978    2.5025   48.6271 C.2     1  ZINC000464706598    0.5900
      3 C3         -1.2833    3.4262   49.4654 C.2     1  ZINC000464706598   -0.2800
      4 C4         -2.2821    3.0789   50.3531 C.2     1  ZINC000464706598    0.1300
      5 N5         -2.7375    4.2155   50.9104 N.pl3   1  ZINC000464706598   -0.3100
      6 C6         -3.7561    4.3073   51.8690 C.ar    1  ZINC000464706598    0.1700
      7 C7         -4.4070    3.1605   52.3039 C.ar    1  ZINC000464706598   -0.1300
      8 C8         -5.4100    3.2536   53.2487 C.ar    1  ZINC000464706598   -0.0600
      9 C9         -5.7668    4.4882   53.7615 C.ar    1  ZINC000464706598   -0.1000
     10 Br10       -7.1410    4.6119   55.0545 Br      1  ZINC000464706598   -0.0400
     11 C11        -5.1194    5.6324   53.3301 C.ar    1  ZINC000464706598   -0.0700
     12 C12        -4.1121    5.5443   52.3893 C.ar    1  ZINC000464706598   -0.1100
     13 N13        -2.0218    5.2907   50.3719 N.2     1  ZINC000464706598   -0.2800
     14 C14        -1.1507    4.8324   49.5154 C.2     1  ZINC000464706598    0.0700
     15 N15        -0.5840    2.5729   47.2838 N.am    1  ZINC000464706598   -0.6100
     16 C16        -1.4553    3.5632   46.6316 C.3     1  ZINC000464706598    0.0400
     17 C17        -2.3297    2.8354   45.6041 C.3     1  ZINC000464706598    0.0500
     18 O18        -1.4953    2.0583   44.7419 O.3     1  ZINC000464706598   -0.3700
     19 C19        -0.7641    1.0267   45.4090 C.3     1  ZINC000464706598    0.0500
     20 C20         0.1950    1.6655   46.4263 C.3     1  ZINC000464706598    0.1600
     21 H21         0.9696    2.2235   45.9003 H       1  ZINC000464706598    0.0900
     22 C22         0.8288    0.5904   47.2708 C.ar    1  ZINC000464706598   -0.0500
     23 C23         0.0827   -0.5011   47.6746 C.ar    1  ZINC000464706598   -0.1000
     24 C24         0.6640   -1.4874   48.4492 C.ar    1  ZINC000464706598   -0.1100
     25 C25         1.9916   -1.3824   48.8199 C.ar    1  ZINC000464706598   -0.1200
     26 C26         2.7379   -0.2914   48.4154 C.ar    1  ZINC000464706598   -0.1100
     27 C27         2.1578    0.6927   47.6371 C.ar    1  ZINC000464706598   -0.1000
     28 H28        -2.6336    2.0791   50.5612 H       1  ZINC000464706598    0.1900
     29 H29        -4.1295    2.1966   51.9035 H       1  ZINC000464706598    0.1400
     30 H30        -5.9167    2.3619   53.5873 H       1  ZINC000464706598    0.1500
     31 H31        -5.3994    6.5948   53.7321 H       1  ZINC000464706598    0.1500
     32 H32        -3.6068    6.4376   52.0531 H       1  ZINC000464706598    0.1500
     33 H33        -0.4546    5.4247   48.9402 H       1  ZINC000464706598    0.2100
     34 H34        -2.0882    4.0434   47.3778 H       1  ZINC000464706598    0.1200
     35 H35        -0.8455    4.3138   46.1286 H       1  ZINC000464706598    0.0800
     36 H36        -3.0298    2.1794   46.1214 H       1  ZINC000464706598    0.0600
     37 H37        -2.8827    3.5662   45.0139 H       1  ZINC000464706598    0.1100
     38 H38        -1.4584    0.3641   45.9256 H       1  ZINC000464706598    0.0600
     39 H39        -0.1906    0.4562   44.6784 H       1  ZINC000464706598    0.1100
     40 H40        -0.9546   -0.5831   47.3850 H       1  ZINC000464706598    0.1100
     41 H41         0.0809   -2.3398   48.7652 H       1  ZINC000464706598    0.1200
     42 H42         2.4456   -2.1526   49.4257 H       1  ZINC000464706598    0.1200
     43 H43         3.7751   -0.2092   48.7053 H       1  ZINC000464706598    0.1200
     44 H44         2.7409    1.5451   47.3211 H       1  ZINC000464706598    0.1100
@<TRIPOS>BOND
     1     1     2    2
     2     2     3    1
     3     2    15   am
     4     3    14    1
     5     3     4    2
     6     4     5    1
     7     4    28    1
     8     5     6    1
     9     5    13    1
    10     6    12   ar
    11     6     7   ar
    12     7     8   ar
    13     7    29    1
    14     8     9   ar
    15     8    30    1
    16     9    10    1
    17     9    11   ar
    18    11    12   ar
    19    11    31    1
    20    12    32    1
    21    13    14    2
    22    14    33    1
    23    15    20    1
    24    15    16    1
    25    16    17    1
    26    16    34    1
    27    16    35    1
    28    17    18    1
    29    17    36    1
    30    17    37    1
    31    18    19    1
    32    19    20    1
    33    19    38    1
    34    19    39    1
    35    20    21    1
    36    20    22    1
    37    22    27   ar
    38    22    23   ar
    39    23    24   ar
    40    23    40    1
    41    24    25   ar
    42    24    41    1
    43    25    26   ar
    44    25    42    1
    45    26    27   ar
    46    26    43    1
    47    27    44    1
@<TRIPOS>SUBSTRUCTURE
     1 ZINC000464706598        1 TEMP              0 ****  ****    0 ROOT


##########                                Name:    ZINC000989658617
##########                DOCK_Rotatable_Bonds:                   6
##########                         Heavy_Atoms:                  24
##########                    Molecular_Weight:             334.418
##########                DOCK_Rotatable_Bonds:                   6
##########                       Formal_Charge:          -0.0100001
##########                     HBond_Acceptors:                   7
##########                        HBond_Donors:                   2
##########                         Heavy_Atoms:                  24
##########                          Grid_Score:          -28.228739
##########                     Grid_vdw_energy:          -24.593803
##########                      Grid_es_energy:           -3.634935
##########           Internal_energy_repulsive:           10.609599

@<TRIPOS>MOLECULE
ZINC000989658617
 50 52 1 0 0
SMALL
USER_CHARGES


@<TRIPOS>ATOM
      1 C1          1.8738    3.1388   52.0194 C.3     1  ZINC000989658617    0.0300
      2 O2          1.7064    3.3949   50.6235 O.3     1  ZINC000989658617   -0.3700
      3 C3          0.3572    3.6688   50.2405 C.3     1  ZINC000989658617    0.0500
      4 C4          0.2979    3.9220   48.7562 C.2     1  ZINC000989658617    0.5300
      5 O5          0.4337    5.0483   48.3273 O.2     1  ZINC000989658617   -0.5100
      6 N6          0.0941    2.8969   47.9053 N.am    1  ZINC000989658617   -0.6200
      7 C7         -0.0860    1.4849   48.2887 C.3     1  ZINC000989658617    0.1000
      8 C8          0.3344    0.6769   47.0357 C.3     1  ZINC000989658617   -0.1500
      9 C9         -0.2020    1.5762   45.8908 C.3     1  ZINC000989658617    0.1400
     10 H10        -1.2610    1.3865   45.7153 H       1  ZINC000989658617    0.1100
     11 N11         0.5701    1.3682   44.6632 N.am    1  ZINC000989658617   -0.7100
     12 C12         0.1033    0.5432   43.7052 C.2     1  ZINC000989658617    0.6100
     13 O13        -0.9577   -0.0296   43.8602 O.2     1  ZINC000989658617   -0.5200
     14 C14         0.8810    0.3349   42.4668 C.2     1  ZINC000989658617   -0.0100
     15 N15         0.5455   -0.4317   41.4431 N.2     1  ZINC000989658617   -0.2600
     16 N16         1.4551   -0.3788   40.5321 N.pl3   1  ZINC000989658617   -0.3700
     17 C17         2.4474    0.4394   40.9194 C.2     1  ZINC000989658617    0.0100
     18 C18         2.1182    0.9174   42.1447 C.2     1  ZINC000989658617   -0.1400
     19 C19         2.9632    1.8692   42.9457 C.3     1  ZINC000989658617   -0.0400
     20 C20         4.3792    1.8710   42.3539 C.3     1  ZINC000989658617   -0.0900
     21 H21         4.8658    0.9207   42.5734 H       1  ZINC000989658617    0.0700
     22 C22         5.1885    3.0130   42.9717 C.3     1  ZINC000989658617   -0.1500
     23 C23         4.2993    2.0651   40.8372 C.3     1  ZINC000989658617   -0.1100
     24 C24         3.7099    0.8097   40.1844 C.3     1  ZINC000989658617   -0.0500
     25 C25         0.0081    3.0025   46.4414 C.3     1  ZINC000989658617    0.1300
     26 H26         0.9364    3.4182   46.0495 H       1  ZINC000989658617    0.0800
     27 C27        -1.1701    3.8932   46.0420 C.3     1  ZINC000989658617   -0.1600
     28 H28         1.5477    4.0083   52.5901 H       1  ZINC000989658617    0.0500
     29 H29         1.2765    2.2725   52.3040 H       1  ZINC000989658617    0.0400
     30 H30         2.9249    2.9401   52.2288 H       1  ZINC000989658617    0.0900
     31 H31        -0.2716    2.8137   50.4887 H       1  ZINC000989658617    0.0800
     32 H32        -0.0002    4.5496   50.7740 H       1  ZINC000989658617    0.0800
     33 H33         0.5563    1.2362   49.1336 H       1  ZINC000989658617    0.0800
     34 H34        -1.1297    1.2885   48.5340 H       1  ZINC000989658617    0.0800
     35 H35         1.4186    0.5786   46.9799 H       1  ZINC000989658617    0.0800
     36 H36        -0.1462   -0.3013   47.0221 H       1  ZINC000989658617    0.1000
     37 H37         1.4172    1.8243   44.5400 H       1  ZINC000989658617    0.4100
     38 H38         1.4272   -0.8593   39.6900 H       1  ZINC000989658617    0.4500
     39 H39         2.5402    2.8722   42.8898 H       1  ZINC000989658617    0.0800
     40 H40         2.9997    1.5427   43.9850 H       1  ZINC000989658617    0.0800
     41 H41         5.2461    2.8748   44.0514 H       1  ZINC000989658617    0.0600
     42 H42         6.1943    3.0144   42.5515 H       1  ZINC000989658617    0.0600
     43 H43         4.7018    3.9634   42.7526 H       1  ZINC000989658617    0.0600
     44 H44         3.6612    2.9200   40.6139 H       1  ZINC000989658617    0.0700
     45 H45         5.2987    2.2457   40.4413 H       1  ZINC000989658617    0.0800
     46 H46         4.4241   -0.0106   40.2548 H       1  ZINC000989658617    0.0800
     47 H47         3.4840    1.0119   39.1374 H       1  ZINC000989658617    0.0800
     48 H48        -2.0923    3.4815   46.4522 H       1  ZINC000989658617    0.0600
     49 H49        -1.0150    4.8983   46.4341 H       1  ZINC000989658617    0.0700
     50 H50        -1.2425    3.9343   44.9551 H       1  ZINC000989658617    0.0700
@<TRIPOS>BOND
     1     1     2    1
     2     1    28    1
     3     1    29    1
     4     1    30    1
     5     2     3    1
     6     3     4    1
     7     3    31    1
     8     3    32    1
     9     4     5    2
    10     4     6   am
    11     6    25    1
    12     6     7    1
    13     7     8    1
    14     7    33    1
    15     7    34    1
    16     8     9    1
    17     8    35    1
    18     8    36    1
    19     9    10    1
    20     9    11    1
    21     9    25    1
    22    11    12   am
    23    11    37    1
    24    12    13    2
    25    12    14    1
    26    14    18    1
    27    14    15    2
    28    15    16    1
    29    16    17    1
    30    16    38    1
    31    17    24    1
    32    17    18    2
    33    18    19    1
    34    19    20    1
    35    19    39    1
    36    19    40    1
    37    20    21    1
    38    20    22    1
    39    20    23    1
    40    22    41    1
    41    22    42    1
    42    22    43    1
    43    23    24    1
    44    23    44    1
    45    23    45    1
    46    24    46    1
    47    24    47    1
    48    25    26    1
    49    25    27    1
    50    27    48    1
    51    27    49    1
    52    27    50    1
@<TRIPOS>SUBSTRUCTURE
     1 ZINC000989658617        1 TEMP              0 ****  ****    0 ROOT


##########                                Name:    ZINC001625935330
##########                DOCK_Rotatable_Bonds:                   5
##########                         Heavy_Atoms:                  25
##########                    Molecular_Weight:             327.385
##########                DOCK_Rotatable_Bonds:                   5
##########                       Formal_Charge:           0.0199995
##########                     HBond_Acceptors:                   4
##########                        HBond_Donors:                   1
##########                         Heavy_Atoms:                  25
##########                          Grid_Score:          -28.205183
##########                     Grid_vdw_energy:          -26.303614
##########                      Grid_es_energy:           -1.901570
##########           Internal_energy_repulsive:           14.346387

@<TRIPOS>MOLECULE
ZINC001625935330
 42 44 1 0 0
SMALL
USER_CHARGES


@<TRIPOS>ATOM
      1 C1         -0.9269    3.7698   48.3816 C.3     1  ZINC001625935330   -0.1600
      2 C2          0.2447    3.4718   49.3196 C.3     1  ZINC001625935330    0.1800
      3 H3          0.9215    4.3260   49.3382 H       1  ZINC001625935330    0.1000
      4 N4         -0.2631    3.2217   50.6709 N.am    1  ZINC001625935330   -0.7100
      5 C5          0.5269    3.4451   51.7397 C.2     1  ZINC001625935330    0.5800
      6 O6          1.6609    3.8527   51.5826 O.2     1  ZINC001625935330   -0.5300
      7 C7          0.0128    3.1939   53.1065 C.ar    1  ZINC001625935330    0.0800
      8 C8         -1.3585    3.1955   53.3372 C.ar    1  ZINC001625935330   -0.1000
      9 C9         -1.8262    2.9561   54.6324 C.ar    1  ZINC001625935330    0.0000
     10 C10        -3.2803    2.9475   54.9272 C.ar    1  ZINC001625935330   -0.0600
     11 C11        -3.7263    2.8622   56.2447 C.ar    1  ZINC001625935330   -0.1000
     12 C12        -5.0800    2.8552   56.5132 C.ar    1  ZINC001625935330   -0.1200
     13 C13        -5.9935    2.9326   55.4774 C.ar    1  ZINC001625935330   -0.1100
     14 C14        -5.5565    3.0174   54.1676 C.ar    1  ZINC001625935330   -0.1200
     15 C15        -4.2050    3.0306   53.8880 C.ar    1  ZINC001625935330   -0.1000
     16 C16        -0.8887    2.7249   55.6419 C.ar    1  ZINC001625935330   -0.1400
     17 C17         0.4588    2.7404   55.3284 C.ar    1  ZINC001625935330    0.1100
     18 N18         0.8662    2.9639   54.0978 N.ar    1  ZINC001625935330   -0.4600
     19 C19         0.9849    2.2548   48.8279 C.ar    1  ZINC001625935330   -0.0900
     20 C20         2.2720    2.3814   48.3370 C.ar    1  ZINC001625935330   -0.0800
     21 C21         2.9589    1.2690   47.8835 C.ar    1  ZINC001625935330   -0.1100
     22 C22         2.3639    0.0253   47.9186 C.ar    1  ZINC001625935330   -0.0700
     23 C23         1.0649   -0.1099   48.4134 C.ar    1  ZINC001625935330   -0.0200
     24 C24         0.4407   -1.3981   48.4531 C.1     1  ZINC001625935330    0.2500
     25 N25        -0.0544   -2.4201   48.4845 N.1     1  ZINC001625935330   -0.4100
     26 C26         0.3794    1.0159   48.8739 C.ar    1  ZINC001625935330   -0.0600
     27 H27        -0.5491    3.9560   47.3763 H       1  ZINC001625935330    0.0700
     28 H28        -1.6037    2.9157   48.3631 H       1  ZINC001625935330    0.0600
     29 H29        -1.4623    4.6501   48.7373 H       1  ZINC001625935330    0.0700
     30 H30        -1.1678    2.8953   50.7963 H       1  ZINC001625935330    0.4100
     31 H31        -2.0508    3.3790   52.5290 H       1  ZINC001625935330    0.1500
     32 H32        -3.0138    2.8014   57.0541 H       1  ZINC001625935330    0.1300
     33 H33        -5.4268    2.7888   57.5338 H       1  ZINC001625935330    0.1300
     34 H34        -7.0520    2.9263   55.6919 H       1  ZINC001625935330    0.1300
     35 H35        -6.2741    3.0772   53.3628 H       1  ZINC001625935330    0.1300
     36 H36        -3.8649    3.0972   52.8652 H       1  ZINC001625935330    0.1300
     37 H37        -1.2119    2.5366   56.6550 H       1  ZINC001625935330    0.1400
     38 H38         1.1875    2.5625   56.1056 H       1  ZINC001625935330    0.1700
     39 H39         2.7427    3.3530   48.3071 H       1  ZINC001625935330    0.1300
     40 H40         3.9632    1.3750   47.5007 H       1  ZINC001625935330    0.1400
     41 H41         2.9009   -0.8420   47.5640 H       1  ZINC001625935330    0.1400
     42 H42        -0.6253    0.9183   49.2578 H       1  ZINC001625935330    0.1400
@<TRIPOS>BOND
     1     1     2    1
     2     1    27    1
     3     1    28    1
     4     1    29    1
     5     2     3    1
     6     2     4    1
     7     2    19    1
     8     4     5   am
     9     4    30    1
    10     5     6    2
    11     5     7    1
    12     7    18   ar
    13     7     8   ar
    14     8     9   ar
    15     8    31    1
    16     9    10    1
    17     9    16   ar
    18    10    15   ar
    19    10    11   ar
    20    11    12   ar
    21    11    32    1
    22    12    13   ar
    23    12    33    1
    24    13    14   ar
    25    13    34    1
    26    14    15   ar
    27    14    35    1
    28    15    36    1
    29    16    17   ar
    30    16    37    1
    31    17    18   ar
    32    17    38    1
    33    19    26   ar
    34    19    20   ar
    35    20    21   ar
    36    20    39    1
    37    21    22   ar
    38    21    40    1
    39    22    23   ar
    40    22    41    1
    41    23    24    1
    42    23    26   ar
    43    24    25    3
    44    26    42    1
@<TRIPOS>SUBSTRUCTURE
     1 ZINC001625935330        1 TEMP              0 ****  ****    0 ROOT


##########                                Name:    ZINC001058079801
##########                DOCK_Rotatable_Bonds:                   7
##########                         Heavy_Atoms:                  24
##########                    Molecular_Weight:             349.457
##########                DOCK_Rotatable_Bonds:                   7
##########                       Formal_Charge:           0.0200001
##########                     HBond_Acceptors:                   8
##########                        HBond_Donors:                   0
##########                         Heavy_Atoms:                  24
##########                          Grid_Score:          -28.174261
##########                     Grid_vdw_energy:          -27.896105
##########                      Grid_es_energy:           -0.278157
##########           Internal_energy_repulsive:           18.145157

@<TRIPOS>MOLECULE
ZINC001058079801
 47 49 1 0 0
SMALL
USER_CHARGES


@<TRIPOS>ATOM
      1 C1          4.3087    2.4147   43.9976 C.3     1  ZINC001058079801   -0.1500
      2 C2          4.1275    0.9392   43.6358 C.3     1  ZINC001058079801   -0.1200
      3 C3          3.2150    0.8223   42.4132 C.3     1  ZINC001058079801   -0.0300
      4 C4          1.7871    0.6573   42.8661 C.2     1  ZINC001058079801    0.2900
      5 N5          0.9004    0.0926   42.0991 N.2     1  ZINC001058079801   -0.4800
      6 S6         -0.5519    0.1107   42.9815 S.3     1  ZINC001058079801    0.1900
      7 C7          0.1322    0.8917   44.3565 C.2     1  ZINC001058079801    0.2700
      8 N8         -0.5089    1.2453   45.5299 N.3     1  ZINC001058079801   -0.4300
      9 C9         -0.4167    2.6919   45.7647 C.3     1  ZINC001058079801    0.0700
     10 C10        -1.2566    3.0660   46.9881 C.3     1  ZINC001058079801   -0.1300
     11 C11        -0.7416    2.2981   48.2087 C.3     1  ZINC001058079801    0.1300
     12 N12        -1.5784    2.6079   49.3707 N.am    1  ZINC001058079801   -0.6100
     13 C13        -2.9251    2.0410   49.4756 C.3     1  ZINC001058079801    0.0700
     14 C14        -1.1092    3.4144   50.3433 C.2     1  ZINC001058079801    0.5200
     15 O15         0.0064    3.8825   50.2573 O.2     1  ZINC001058079801   -0.5300
     16 C16        -1.9705    3.7344   51.5377 C.3     1  ZINC001058079801   -0.0600
     17 C17        -2.7829    4.9716   51.2542 C.2     1  ZINC001058079801   -0.1900
     18 C18        -4.0124    5.2883   51.7261 C.2     1  ZINC001058079801   -0.0400
     19 O19        -4.3241    6.4820   51.2020 O.3     1  ZINC001058079801    0.1000
     20 N20        -3.4403    6.8993   50.4899 N.2     1  ZINC001058079801   -0.3600
     21 C21        -2.4355    6.0733   50.4390 C.2     1  ZINC001058079801    0.0000
     22 C22        -0.8029    0.7957   47.9199 C.3     1  ZINC001058079801   -0.1200
     23 C23         0.0238    0.4875   46.6694 C.3     1  ZINC001058079801    0.0400
     24 N24         1.3993    1.0736   44.0493 N.2     1  ZINC001058079801   -0.5300
     25 H25         4.9587    2.4980   44.8686 H       1  ZINC001058079801    0.0600
     26 H26         4.7585    2.9424   43.1566 H       1  ZINC001058079801    0.0600
     27 H27         3.3379    2.8549   44.2254 H       1  ZINC001058079801    0.0600
     28 H28         5.0983    0.4990   43.4080 H       1  ZINC001058079801    0.0700
     29 H29         3.6776    0.4115   44.4768 H       1  ZINC001058079801    0.0700
     30 H30         3.3020    1.7242   41.8073 H       1  ZINC001058079801    0.1000
     31 H31         3.5105   -0.0435   41.8207 H       1  ZINC001058079801    0.0900
     32 H32         0.6235    2.9657   45.9407 H       1  ZINC001058079801    0.0600
     33 H33        -0.7899    3.2261   44.8910 H       1  ZINC001058079801    0.1000
     34 H34        -1.1755    4.1374   47.1715 H       1  ZINC001058079801    0.0800
     35 H35        -2.2993    2.8050   46.8074 H       1  ZINC001058079801    0.0800
     36 H36         0.2886    2.5889   48.4139 H       1  ZINC001058079801    0.1000
     37 H37        -2.8771    1.0836   49.9944 H       1  ZINC001058079801    0.0600
     38 H38        -3.5649    2.7248   50.0334 H       1  ZINC001058079801    0.0800
     39 H39        -3.3357    1.8926   48.4767 H       1  ZINC001058079801    0.0800
     40 H40        -2.6402    2.8978   51.7372 H       1  ZINC001058079801    0.1100
     41 H41        -1.3364    3.9074   52.4072 H       1  ZINC001058079801    0.1100
     42 H42        -4.6213    4.6960   52.3928 H       1  ZINC001058079801    0.2200
     43 H43        -1.5206    6.2011   49.8794 H       1  ZINC001058079801    0.1900
     44 H44        -0.3977    0.2451   48.7689 H       1  ZINC001058079801    0.0900
     45 H45        -1.8385    0.4990   47.7538 H       1  ZINC001058079801    0.0800
     46 H46        -0.0295   -0.5795   46.4528 H       1  ZINC001058079801    0.1000
     47 H47         1.0619    0.7717   46.8413 H       1  ZINC001058079801    0.0700
@<TRIPOS>BOND
     1     1     2    1
     2     1    25    1
     3     1    26    1
     4     1    27    1
     5     2     3    1
     6     2    28    1
     7     2    29    1
     8     3     4    1
     9     3    30    1
    10     3    31    1
    11     4    24    1
    12     4     5    2
    13     5     6    1
    14     6     7    1
    15     7     8    1
    16     7    24    2
    17     8    23    1
    18     8     9    1
    19     9    10    1
    20     9    32    1
    21     9    33    1
    22    10    11    1
    23    10    34    1
    24    10    35    1
    25    11    12    1
    26    11    22    1
    27    11    36    1
    28    12    13    1
    29    12    14   am
    30    13    37    1
    31    13    38    1
    32    13    39    1
    33    14    15    2
    34    14    16    1
    35    16    17    1
    36    16    40    1
    37    16    41    1
    38    17    21    1
    39    17    18    2
    40    18    19    1
    41    18    42    1
    42    19    20    1
    43    20    21    2
    44    21    43    1
    45    22    23    1
    46    22    44    1
    47    22    45    1
    48    23    46    1
    49    23    47    1
@<TRIPOS>SUBSTRUCTURE
     1 ZINC001058079801        1 TEMP              0 ****  ****    0 ROOT


##########                                Name:    ZINC001064463188
##########                DOCK_Rotatable_Bonds:                   6
##########                         Heavy_Atoms:                  25
##########                    Molecular_Weight:             342.441
##########                DOCK_Rotatable_Bonds:                   6
##########                       Formal_Charge:          -0.0100004
##########                     HBond_Acceptors:                   6
##########                        HBond_Donors:                   0
##########                         Heavy_Atoms:                  25
##########                          Grid_Score:          -28.168966
##########                     Grid_vdw_energy:          -28.318104
##########                      Grid_es_energy:            0.149138
##########           Internal_energy_repulsive:           17.557419

@<TRIPOS>MOLECULE
ZINC001064463188
 51 54 1 0 0
SMALL
USER_CHARGES


@<TRIPOS>ATOM
      1 C1        -13.5532   -4.3448   57.3933 C.3     1  ZINC001064463188    0.0400
      2 O2        -13.1086   -2.9996   57.5802 O.3     1  ZINC001064463188   -0.3000
      3 C3        -13.0157   -2.5540   58.8566 C.ar    1  ZINC001064463188    0.3900
      4 C4        -14.0822   -2.7128   59.7401 C.ar    1  ZINC001064463188   -0.2800
      5 C5        -13.9435   -2.2432   61.0328 C.ar    1  ZINC001064463188    0.2000
      6 N6        -12.8100   -1.6602   61.3919 N.ar    1  ZINC001064463188   -0.5800
      7 C7        -11.8129   -1.5233   60.5301 C.ar    1  ZINC001064463188    0.5300
      8 N8        -10.6435   -0.9090   60.9431 N.3     1  ZINC001064463188   -0.4500
      9 C9        -10.9301    0.3074   61.7000 C.3     1  ZINC001064463188    0.0700
     10 C10        -9.9933    1.4379   61.2578 C.3     1  ZINC001064463188   -0.1200
     11 C11        -8.5506    1.1621   61.6361 C.3     1  ZINC001064463188    0.1400
     12 H12        -7.9085    1.9564   61.2555 H       1  ZINC001064463188    0.0900
     13 C13        -8.3793    1.0342   63.1511 C.3     1  ZINC001064463188   -0.1300
     14 C14        -8.6049   -0.4618   63.4329 C.3     1  ZINC001064463188   -0.1300
     15 C15        -8.4685   -1.1525   62.0716 C.3     1  ZINC001064463188    0.1200
     16 H16        -7.6646   -1.8875   62.1113 H       1  ZINC001064463188    0.0900
     17 C17        -9.7838   -1.8555   61.7017 C.3     1  ZINC001064463188    0.0600
     18 N18        -8.1638   -0.1425   61.0230 N.am    1  ZINC001064463188   -0.6000
     19 C19        -7.6540   -0.3661   59.7955 C.2     1  ZINC001064463188    0.5800
     20 O20        -7.3894   -1.5000   59.4443 O.2     1  ZINC001064463188   -0.5400
     21 C21        -7.4175    0.7613   58.8807 C.2     1  ZINC001064463188   -0.2200
     22 C22        -8.2240    0.9545   57.8411 C.2     1  ZINC001064463188    0.0000
     23 C23        -9.3802    0.0185   57.6002 C.3     1  ZINC001064463188   -0.1300
     24 C24        -7.9817    2.1095   56.9039 C.3     1  ZINC001064463188   -0.1200
     25 C25        -7.3988    3.3925   57.4998 C.3     1  ZINC001064463188   -0.1900
     26 C26        -6.5289    2.4945   56.6178 C.3     1  ZINC001064463188   -0.1600
     27 N27       -11.9055   -1.9652   59.2848 N.ar    1  ZINC001064463188   -0.5900
     28 H28       -14.5509   -4.4599   57.8171 H       1  ZINC001064463188    0.0600
     29 H29       -13.5824   -4.5731   56.3279 H       1  ZINC001064463188    0.1000
     30 H30       -12.8655   -5.0274   57.8925 H       1  ZINC001064463188    0.0600
     31 H31       -14.9963   -3.1917   59.4216 H       1  ZINC001064463188    0.1500
     32 H32       -14.7511   -2.3500   61.7420 H       1  ZINC001064463188    0.1800
     33 H33       -11.9639    0.6059   61.5261 H       1  ZINC001064463188    0.0800
     34 H34       -10.7861    0.1138   62.7630 H       1  ZINC001064463188    0.0600
     35 H35       -10.0606    1.5510   60.1758 H       1  ZINC001064463188    0.0800
     36 H36       -10.3120    2.3672   61.7300 H       1  ZINC001064463188    0.0800
     37 H37        -7.3732    1.3306   63.4475 H       1  ZINC001064463188    0.0800
     38 H38        -9.1240    1.6367   63.6712 H       1  ZINC001064463188    0.0900
     39 H39        -7.8484   -0.8346   64.1235 H       1  ZINC001064463188    0.0800
     40 H40        -9.6027   -0.6234   63.8407 H       1  ZINC001064463188    0.0800
     41 H41       -10.3074   -2.1523   62.6104 H       1  ZINC001064463188    0.0700
     42 H42        -9.5693   -2.7368   61.0972 H       1  ZINC001064463188    0.0900
     43 H43        -6.5889    1.4322   59.0534 H       1  ZINC001064463188    0.1200
     44 H44       -10.2628    0.3895   58.1213 H       1  ZINC001064463188    0.0800
     45 H45        -9.5860   -0.0371   56.5313 H       1  ZINC001064463188    0.0800
     46 H46        -9.1281   -0.9740   57.9738 H       1  ZINC001064463188    0.0700
     47 H47        -8.6995    2.2130   56.0900 H       1  ZINC001064463188    0.1400
     48 H48        -7.7332    4.3404   57.0780 H       1  ZINC001064463188    0.1000
     49 H49        -7.1906    3.4012   58.5696 H       1  ZINC001064463188    0.1000
     50 H50        -5.7483    1.9125   57.1076 H       1  ZINC001064463188    0.0900
     51 H51        -6.2908    2.8517   55.6160 H       1  ZINC001064463188    0.1000
@<TRIPOS>BOND
     1     1     2    1
     2     1    28    1
     3     1    29    1
     4     1    30    1
     5     2     3    1
     6     3    27   ar
     7     3     4   ar
     8     4     5   ar
     9     4    31    1
    10     5     6   ar
    11     5    32    1
    12     6     7   ar
    13     7     8    1
    14     7    27   ar
    15     8    17    1
    16     8     9    1
    17     9    10    1
    18     9    33    1
    19     9    34    1
    20    10    11    1
    21    10    35    1
    22    10    36    1
    23    11    12    1
    24    11    18    1
    25    11    13    1
    26    13    14    1
    27    13    37    1
    28    13    38    1
    29    14    15    1
    30    14    39    1
    31    14    40    1
    32    15    16    1
    33    15    17    1
    34    15    18    1
    35    17    41    1
    36    17    42    1
    37    18    19   am
    38    19    20    2
    39    19    21    1
    40    21    22    2
    41    21    43    1
    42    22    23    1
    43    22    24    1
    44    23    44    1
    45    23    45    1
    46    23    46    1
    47    24    26    1
    48    24    25    1
    49    24    47    1
    50    25    26    1
    51    25    48    1
    52    25    49    1
    53    26    50    1
    54    26    51    1
@<TRIPOS>SUBSTRUCTURE
     1 ZINC001064463188        1 TEMP              0 ****  ****    0 ROOT


##########                                Name:    ZINC001045438664
##########                DOCK_Rotatable_Bonds:                   6
##########                         Heavy_Atoms:                  26
##########                    Molecular_Weight:             352.439
##########                DOCK_Rotatable_Bonds:                   6
##########                       Formal_Charge:          -0.0099999
##########                     HBond_Acceptors:                   7
##########                        HBond_Donors:                   2
##########                         Heavy_Atoms:                  26
##########                          Grid_Score:          -28.154648
##########                     Grid_vdw_energy:          -29.198860
##########                      Grid_es_energy:            1.044213
##########           Internal_energy_repulsive:            8.777096

@<TRIPOS>MOLECULE
ZINC001045438664
 50 53 1 0 0
SMALL
USER_CHARGES


@<TRIPOS>ATOM
      1 C1         -1.5040    6.6736   48.7928 C.3     1  ZINC001045438664   -0.1100
      2 C2         -1.9983    5.5394   49.6534 C.ar    1  ZINC001045438664    0.2100
      3 C3         -2.3328    5.7595   50.9747 C.ar    1  ZINC001045438664   -0.3000
      4 C4         -2.7866    4.6776   51.7327 C.ar    1  ZINC001045438664    0.4500
      5 N5         -3.1352    4.8470   53.0627 N.pl3   1  ZINC001045438664   -0.7100
      6 C6         -3.8062    3.7651   53.7876 C.3     1  ZINC001045438664    0.1500
      7 H7         -3.7986    2.8607   53.1791 H       1  ZINC001045438664    0.0900
      8 C8         -5.2521    4.1690   54.0826 C.3     1  ZINC001045438664   -0.1300
      9 C9         -5.9530    3.0391   54.8396 C.3     1  ZINC001045438664   -0.1200
     10 C10        -5.2187    2.7747   56.1555 C.3     1  ZINC001045438664   -0.1200
     11 C11        -3.7727    2.3708   55.8605 C.3     1  ZINC001045438664   -0.1300
     12 C12        -3.0719    3.5007   55.1035 C.3     1  ZINC001045438664    0.1400
     13 H13        -3.0796    4.4050   55.7119 H       1  ZINC001045438664    0.1000
     14 N14        -1.6875    3.1140   54.8210 N.am    1  ZINC001045438664   -0.7200
     15 C15        -0.7551    3.1900   55.7913 C.2     1  ZINC001045438664    0.5700
     16 O16        -1.0627    3.5810   56.9004 O.2     1  ZINC001045438664   -0.5200
     17 C17         0.6416    2.7981   55.5067 C.ar    1  ZINC001045438664   -0.2500
     18 C18         1.5783    2.6727   56.5388 C.ar    1  ZINC001045438664    0.1900
     19 N19         2.8160    2.3195   56.2392 N.ar    1  ZINC001045438664   -0.5200
     20 C20         3.1720    2.0871   54.9910 C.ar    1  ZINC001045438664    0.3200
     21 N21         2.3220    2.1939   53.9885 N.ar    1  ZINC001045438664   -0.5200
     22 C22         1.0630    2.5363   54.1980 C.ar    1  ZINC001045438664    0.2100
     23 N23        -2.8792    3.4826   51.1569 N.ar    1  ZINC001045438664   -0.5800
     24 C24        -2.5489    3.3182   49.8919 C.ar    1  ZINC001045438664    0.4000
     25 C25        -2.6682    1.9481   49.2757 C.3     1  ZINC001045438664   -0.1100
     26 C26        -2.2054    1.7825   47.8268 C.3     1  ZINC001045438664   -0.1500
     27 C27        -1.3715    1.1966   48.9679 C.3     1  ZINC001045438664   -0.1500
     28 N28        -2.1223    4.3196   49.1491 N.ar    1  ZINC001045438664   -0.5600
     29 H29        -2.3518    7.1593   48.3097 H       1  ZINC001045438664    0.0800
     30 H30        -0.9761    7.3975   49.4137 H       1  ZINC001045438664    0.0800
     31 H31        -0.8266    6.2844   48.0327 H       1  ZINC001045438664    0.0800
     32 H32        -2.2455    6.7433   51.4114 H       1  ZINC001045438664    0.1400
     33 H33        -2.9350    5.6820   53.5139 H       1  ZINC001045438664    0.4100
     34 H34        -5.2599    5.0734   54.6910 H       1  ZINC001045438664    0.0700
     35 H35        -5.7753    4.3574   53.1450 H       1  ZINC001045438664    0.0700
     36 H36        -6.9831    3.3269   55.0498 H       1  ZINC001045438664    0.0700
     37 H37        -5.9453    2.1348   54.2311 H       1  ZINC001045438664    0.0700
     38 H38        -5.2263    3.6791   56.7639 H       1  ZINC001045438664    0.0700
     39 H39        -5.7179    1.9697   56.6949 H       1  ZINC001045438664    0.0700
     40 H40        -3.2496    2.1825   56.7981 H       1  ZINC001045438664    0.0800
     41 H41        -3.7650    1.4665   55.2521 H       1  ZINC001045438664    0.0700
     42 H42        -1.4418    2.8032   53.9356 H       1  ZINC001045438664    0.4000
     43 H43         1.2944    2.8618   57.5635 H       1  ZINC001045438664    0.1700
     44 H44         4.1923    1.8004   54.7830 H       1  ZINC001045438664    0.2100
     45 H45         0.3727    2.6216   53.3718 H       1  ZINC001045438664    0.1800
     46 H46        -3.5260    1.3595   49.6008 H       1  ZINC001045438664    0.1300
     47 H47        -2.7590    1.0848   47.1984 H       1  ZINC001045438664    0.1000
     48 H48        -1.8147    2.6644   47.3192 H       1  ZINC001045438664    0.1100
     49 H49        -0.4321    1.6931   49.2111 H       1  ZINC001045438664    0.1000
     50 H50        -1.3764    0.1135   49.0902 H       1  ZINC001045438664    0.1000
@<TRIPOS>BOND
     1     1     2    1
     2     1    29    1
     3     1    30    1
     4     1    31    1
     5     2    28   ar
     6     2     3   ar
     7     3     4   ar
     8     3    32    1
     9     4     5    1
    10     4    23   ar
    11     5     6    1
    12     5    33    1
    13     6     7    1
    14     6    12    1
    15     6     8    1
    16     8     9    1
    17     8    34    1
    18     8    35    1
    19     9    10    1
    20     9    36    1
    21     9    37    1
    22    10    11    1
    23    10    38    1
    24    10    39    1
    25    11    12    1
    26    11    40    1
    27    11    41    1
    28    12    13    1
    29    12    14    1
    30    14    15   am
    31    14    42    1
    32    15    16    2
    33    15    17    1
    34    17    22   ar
    35    17    18   ar
    36    18    19   ar
    37    18    43    1
    38    19    20   ar
    39    20    21   ar
    40    20    44    1
    41    21    22   ar
    42    22    45    1
    43    23    24   ar
    44    24    25    1
    45    24    28   ar
    46    25    27    1
    47    25    26    1
    48    25    46    1
    49    26    27    1
    50    26    47    1
    51    26    48    1
    52    27    49    1
    53    27    50    1
@<TRIPOS>SUBSTRUCTURE
     1 ZINC001045438664        1 TEMP              0 ****  ****    0 ROOT


##########                                Name:    ZINC000867639366
##########                DOCK_Rotatable_Bonds:                   6
##########                         Heavy_Atoms:                  25
##########                    Molecular_Weight:             388.509
##########                DOCK_Rotatable_Bonds:                   6
##########                       Formal_Charge:          0.00999961
##########                     HBond_Acceptors:                   9
##########                        HBond_Donors:                   1
##########                         Heavy_Atoms:                  25
##########                          Grid_Score:          -28.137701
##########                     Grid_vdw_energy:          -28.377241
##########                      Grid_es_energy:            0.239540
##########           Internal_energy_repulsive:           41.416546

@<TRIPOS>MOLECULE
ZINC000867639366
 49 51 1 0 0
SMALL
USER_CHARGES


@<TRIPOS>ATOM
      1 C1          2.4353    0.9650   42.9459 C.3     1  ZINC000867639366    0.0300
      2 O2          1.6730    1.3406   44.0948 O.3     1  ZINC000867639366   -0.3800
      3 C3          2.2292    2.4327   44.8298 C.3     1  ZINC000867639366    0.0800
      4 H4          2.7675    3.0925   44.1493 H       1  ZINC000867639366    0.0800
      5 C5          3.1932    1.8963   45.8905 C.3     1  ZINC000867639366   -0.1400
      6 C6          2.4459    0.9435   46.8262 C.3     1  ZINC000867639366   -0.1200
      7 C7          1.3229    1.7068   47.5354 C.3     1  ZINC000867639366    0.1500
      8 H8          1.7528    2.4684   48.1859 H       1  ZINC000867639366    0.0800
      9 C9          0.4872    0.7329   48.3685 C.3     1  ZINC000867639366   -0.1900
     10 N10         0.4732    2.3472   46.5220 N.am    1  ZINC000867639366   -0.9800
     11 S11        -1.1639    2.0981   46.5140 S.o2    1  ZINC000867639366    2.6900
     12 O12        -1.6969    2.9655   45.5225 O.2     1  ZINC000867639366   -0.9500
     13 O13        -1.3556    0.6903   46.4993 O.2     1  ZINC000867639366   -0.9400
     14 C14        -1.7859    2.6689   48.0607 C.ar    1  ZINC000867639366   -0.6300
     15 C15        -1.3724    3.8881   48.5643 C.ar    1  ZINC000867639366   -0.0500
     16 C16        -1.8604    4.3359   49.7777 C.ar    1  ZINC000867639366   -0.0400
     17 C17        -2.7620    3.5649   50.4872 C.ar    1  ZINC000867639366   -0.6300
     18 S18        -3.3835    4.1354   52.0341 S.o2    1  ZINC000867639366    2.7000
     19 O19        -3.9902    5.3955   51.7827 O.2     1  ZINC000867639366   -0.9400
     20 O20        -4.0781    3.0406   52.6157 O.2     1  ZINC000867639366   -0.9500
     21 N21        -2.0774    4.4312   53.0081 N.am    1  ZINC000867639366   -1.0800
     22 C22        -1.1490    3.3470   53.3378 C.3     1  ZINC000867639366    0.0800
     23 C23        -0.0003    3.0796   52.3631 C.3     1  ZINC000867639366   -0.1800
     24 C24         0.2820    3.7331   53.7175 C.3     1  ZINC000867639366   -0.1900
     25 C25        -3.1765    2.3464   49.9828 C.ar    1  ZINC000867639366   -0.0400
     26 C26        -2.6915    1.9003   48.7676 C.ar    1  ZINC000867639366   -0.0400
     27 C27         1.1036    3.2134   45.5155 C.3     1  ZINC000867639366    0.1200
     28 H28         2.5032    1.8113   42.2624 H       1  ZINC000867639366    0.0400
     29 H29         3.4369    0.6671   43.2560 H       1  ZINC000867639366    0.0400
     30 H30         1.9472    0.1300   42.4432 H       1  ZINC000867639366    0.0900
     31 H31         4.0084    1.3616   45.4030 H       1  ZINC000867639366    0.0700
     32 H32         3.5981    2.7281   46.4669 H       1  ZINC000867639366    0.0700
     33 H33         2.0196    0.1245   46.2469 H       1  ZINC000867639366    0.0800
     34 H34         3.1383    0.5438   47.5672 H       1  ZINC000867639366    0.0800
     35 H35         1.0866    0.3574   49.1979 H       1  ZINC000867639366    0.0700
     36 H36        -0.3902    1.2487   48.7585 H       1  ZINC000867639366    0.0600
     37 H37         0.1701   -0.1012   47.7426 H       1  ZINC000867639366    0.1000
     38 H38        -0.6679    4.4905   48.0101 H       1  ZINC000867639366    0.1600
     39 H39        -1.5368    5.2881   50.1716 H       1  ZINC000867639366    0.1500
     40 H40        -1.9270    5.3224   53.3604 H       1  ZINC000867639366    0.4200
     41 H41        -1.5898    2.4883   53.8444 H       1  ZINC000867639366    0.1400
     42 H42         0.3146    2.0449   52.2281 H       1  ZINC000867639366    0.1100
     43 H43         0.0646    3.7105   51.4766 H       1  ZINC000867639366    0.1000
     44 H44         0.5326    4.7938   53.7219 H       1  ZINC000867639366    0.1000
     45 H45         0.7827    3.1283   54.4734 H       1  ZINC000867639366    0.1000
     46 H46        -3.8812    1.7441   50.5369 H       1  ZINC000867639366    0.1500
     47 H47        -3.0153    0.9483   48.3735 H       1  ZINC000867639366    0.1500
     48 H48         1.5157    4.0979   46.0013 H       1  ZINC000867639366    0.0900
     49 H49         0.3620    3.5128   44.7750 H       1  ZINC000867639366    0.1000
@<TRIPOS>BOND
     1     1     2    1
     2     1    28    1
     3     1    29    1
     4     1    30    1
     5     2     3    1
     6     3     4    1
     7     3    27    1
     8     3     5    1
     9     5     6    1
    10     5    31    1
    11     5    32    1
    12     6     7    1
    13     6    33    1
    14     6    34    1
    15     7     8    1
    16     7     9    1
    17     7    10    1
    18     9    35    1
    19     9    36    1
    20     9    37    1
    21    10    11   am
    22    10    27    1
    23    11    12    2
    24    11    13    2
    25    11    14    1
    26    14    26   ar
    27    14    15   ar
    28    15    16   ar
    29    15    38    1
    30    16    17   ar
    31    16    39    1
    32    17    18    1
    33    17    25   ar
    34    18    19    2
    35    18    20    2
    36    18    21   am
    37    21    22    1
    38    21    40    1
    39    22    24    1
    40    22    23    1
    41    22    41    1
    42    23    24    1
    43    23    42    1
    44    23    43    1
    45    24    44    1
    46    24    45    1
    47    25    26   ar
    48    25    46    1
    49    26    47    1
    50    27    48    1
    51    27    49    1
@<TRIPOS>SUBSTRUCTURE
     1 ZINC000867639366        1 TEMP              0 ****  ****    0 ROOT


##########                                Name:    ZINC000763800048
##########                DOCK_Rotatable_Bonds:                   8
##########                         Heavy_Atoms:                  23
##########                    Molecular_Weight:             329.783
##########                DOCK_Rotatable_Bonds:                   8
##########                       Formal_Charge:           0.0199994
##########                     HBond_Acceptors:                   5
##########                        HBond_Donors:                   1
##########                         Heavy_Atoms:                  23
##########                          Grid_Score:          -28.113857
##########                     Grid_vdw_energy:          -28.773716
##########                      Grid_es_energy:            0.659858
##########           Internal_energy_repulsive:            9.070301

@<TRIPOS>MOLECULE
ZINC000763800048
 39 40 1 0 0
SMALL
USER_CHARGES


@<TRIPOS>ATOM
      1 C1         -5.6570    2.2179   57.2251 C.3     1  ZINC000763800048    0.0400
      2 O2         -4.4122    1.7862   56.6146 O.3     1  ZINC000763800048   -0.3600
      3 C3         -4.1415    2.2544   55.3861 C.2     1  ZINC000763800048    0.4600
      4 O4         -3.1199    1.9308   54.8279 O.2     1  ZINC000763800048   -0.4900
      5 C5         -5.1116    3.1836   54.7033 C.3     1  ZINC000763800048   -0.0700
      6 C6         -4.3690    4.0503   53.7192 C.ar    1  ZINC000763800048   -0.0600
      7 C7         -3.9222    5.3019   54.1011 C.ar    1  ZINC000763800048   -0.1200
      8 C8         -3.2403    6.1005   53.2010 C.ar    1  ZINC000763800048   -0.1000
      9 C9         -3.0030    5.6497   51.9175 C.ar    1  ZINC000763800048   -0.1100
     10 C10        -3.4501    4.3926   51.5308 C.ar    1  ZINC000763800048    0.1500
     11 N11        -3.2114    3.9330   50.2320 N.am    1  ZINC000763800048   -0.6700
     12 C12        -1.9885    3.4806   49.8913 C.2     1  ZINC000763800048    0.5500
     13 O13        -1.0918    3.4720   50.7143 O.2     1  ZINC000763800048   -0.5200
     14 C14        -1.7388    2.9996   48.5319 C.2     1  ZINC000763800048   -0.2100
     15 C15        -1.0625    1.8491   48.3373 C.2     1  ZINC000763800048   -0.0100
     16 C16        -0.8128    1.3646   46.9704 C.ar    1  ZINC000763800048   -0.0800
     17 C17        -1.2083    0.0755   46.5986 C.ar    1  ZINC000763800048   -0.0900
     18 C18        -0.9711   -0.3716   45.3166 C.ar    1  ZINC000763800048   -0.1100
     19 C19        -0.3420    0.4523   44.3973 C.ar    1  ZINC000763800048   -0.0200
     20 Cl20       -0.0469   -0.1196   42.7850 Cl      1  ZINC000763800048   -0.0600
     21 C21         0.0522    1.7304   44.7584 C.ar    1  ZINC000763800048   -0.1100
     22 C22        -0.1838    2.1930   46.0352 C.ar    1  ZINC000763800048   -0.0800
     23 C23        -4.1303    3.5913   52.4385 C.ar    1  ZINC000763800048   -0.1300
     24 H24        -5.7522    1.7681   58.2133 H       1  ZINC000763800048    0.1000
     25 H25        -5.6583    3.3039   57.3187 H       1  ZINC000763800048    0.0600
     26 H26        -6.4948    1.9059   56.6016 H       1  ZINC000763800048    0.0600
     27 H27        -5.8651    2.5987   54.1758 H       1  ZINC000763800048    0.1200
     28 H28        -5.5969    3.8139   55.4484 H       1  ZINC000763800048    0.1200
     29 H29        -4.1065    5.6568   55.1042 H       1  ZINC000763800048    0.1200
     30 H30        -2.8932    7.0778   53.5022 H       1  ZINC000763800048    0.1300
     31 H31        -2.4706    6.2739   51.2151 H       1  ZINC000763800048    0.1400
     32 H32        -3.9261    3.9400   49.5761 H       1  ZINC000763800048    0.4100
     33 H33        -2.0959    3.5660   47.6846 H       1  ZINC000763800048    0.1300
     34 H34        -0.7041    1.2834   49.1846 H       1  ZINC000763800048    0.1400
     35 H35        -1.6982   -0.5680   47.3145 H       1  ZINC000763800048    0.1400
     36 H36        -1.2761   -1.3667   45.0281 H       1  ZINC000763800048    0.1400
     37 H37         0.5420    2.3672   44.0366 H       1  ZINC000763800048    0.1400
     38 H38         0.1238    3.1896   46.3153 H       1  ZINC000763800048    0.1400
     39 H39        -4.4789    2.6133   52.1410 H       1  ZINC000763800048    0.1300
@<TRIPOS>BOND
     1     1     2    1
     2     1    24    1
     3     1    25    1
     4     1    26    1
     5     2     3    1
     6     3     4    2
     7     3     5    1
     8     5     6    1
     9     5    27    1
    10     5    28    1
    11     6    23   ar
    12     6     7   ar
    13     7     8   ar
    14     7    29    1
    15     8     9   ar
    16     8    30    1
    17     9    10   ar
    18     9    31    1
    19    10    11    1
    20    10    23   ar
    21    11    12   am
    22    11    32    1
    23    12    13    2
    24    12    14    1
    25    14    15    2
    26    14    33    1
    27    15    16    1
    28    15    34    1
    29    16    22   ar
    30    16    17   ar
    31    17    18   ar
    32    17    35    1
    33    18    19   ar
    34    18    36    1
    35    19    20    1
    36    19    21   ar
    37    21    22   ar
    38    21    37    1
    39    22    38    1
    40    23    39    1
@<TRIPOS>SUBSTRUCTURE
     1 ZINC000763800048        1 TEMP              0 ****  ****    0 ROOT


##########                                Name:    ZINC001091652821
##########                DOCK_Rotatable_Bonds:                   4
##########                         Heavy_Atoms:                  24
##########                    Molecular_Weight:             345.465
##########                DOCK_Rotatable_Bonds:                   4
##########                       Formal_Charge:          -0.0199997
##########                     HBond_Acceptors:                   6
##########                        HBond_Donors:                   0
##########                         Heavy_Atoms:                  24
##########                          Grid_Score:          -28.111124
##########                     Grid_vdw_energy:          -28.509129
##########                      Grid_es_energy:            0.398004
##########           Internal_energy_repulsive:            5.511444

@<TRIPOS>MOLECULE
ZINC001091652821
 47 50 1 0 0
SMALL
USER_CHARGES


@<TRIPOS>ATOM
      1 C1         -5.6129    3.0875   55.9363 C.3     1  ZINC001091652821   -0.1000
      2 C2         -4.4480    3.7928   55.2909 C.2     1  ZINC001091652821   -0.1200
      3 C3         -4.4226    5.1181   55.1085 C.2     1  ZINC001091652821   -0.2400
      4 S4         -2.9708    5.6027   54.3547 S.3     1  ZINC001091652821    0.2100
      5 C5         -2.3926    3.9433   54.2929 C.2     1  ZINC001091652821   -0.2700
      6 C6         -1.1073    3.5107   53.7365 C.2     1  ZINC001091652821    0.6100
      7 O7         -0.4116    2.7243   54.3518 O.2     1  ZINC001091652821   -0.5200
      8 N8         -0.6961    3.9840   52.5434 N.am    1  ZINC001091652821   -0.6200
      9 C9          0.5564    3.6468   51.8474 C.3     1  ZINC001091652821    0.0900
     10 C10         0.2532    3.7315   50.3424 C.3     1  ZINC001091652821   -0.0900
     11 H11         1.0801    4.1685   49.7826 H       1  ZINC001091652821    0.1100
     12 C12        -0.1199    2.3272   49.8232 C.3     1  ZINC001091652821    0.0400
     13 N13        -1.2960    2.5508   48.9440 N.3     1  ZINC001091652821   -0.5000
     14 C14        -2.0635    1.3111   48.7660 C.3     1  ZINC001091652821    0.1200
     15 C15        -1.5901    0.6012   47.5239 C.2     1  ZINC001091652821    0.0000
     16 C16        -1.2776   -0.7016   47.4258 C.2     1  ZINC001091652821   -0.0800
     17 O17        -0.9032   -0.9247   46.1508 O.3     1  ZINC001091652821   -0.2000
     18 C18        -0.9911    0.2373   45.4900 C.2     1  ZINC001091652821    0.1900
     19 C19        -0.6659    0.4453   44.0332 C.3     1  ZINC001091652821   -0.0600
     20 N20        -1.4099    1.1564   46.3124 N.2     1  ZINC001091652821   -0.4700
     21 C21        -2.0978    3.5749   49.6612 C.3     1  ZINC001091652821    0.0400
     22 C22        -1.0398    4.5803   50.2335 C.3     1  ZINC001091652821   -0.0700
     23 C23        -0.8813    5.8152   49.3443 C.3     1  ZINC001091652821   -0.1300
     24 C24        -1.4147    4.9344   51.6790 C.3     1  ZINC001091652821    0.1200
     25 C25        -3.3311    3.1222   54.8519 C.2     1  ZINC001091652821   -0.0500
     26 H26        -5.4574    3.0405   57.0141 H       1  ZINC001091652821    0.0700
     27 H27        -6.5314    3.6352   55.7253 H       1  ZINC001091652821    0.0700
     28 H28        -5.6927    2.0767   55.5363 H       1  ZINC001091652821    0.0700
     29 H29        -5.2157    5.7913   55.3991 H       1  ZINC001091652821    0.1700
     30 H30         1.3358    4.3611   52.1128 H       1  ZINC001091652821    0.0800
     31 H31         0.8695    2.6362   52.1095 H       1  ZINC001091652821    0.0800
     32 H32         0.7054    1.9016   49.2524 H       1  ZINC001091652821    0.0800
     33 H33        -0.3856    1.6733   50.6537 H       1  ZINC001091652821    0.0500
     34 H34        -1.9167    0.6654   49.6318 H       1  ZINC001091652821    0.0500
     35 H35        -3.1223    1.5503   48.6666 H       1  ZINC001091652821    0.1000
     36 H36        -1.3185   -1.4327   48.2198 H       1  ZINC001091652821    0.2100
     37 H37        -0.3453   -0.4994   43.5940 H       1  ZINC001091652821    0.0900
     38 H38        -1.5519    0.8065   43.5111 H       1  ZINC001091652821    0.1000
     39 H39         0.1348    1.1792   43.9408 H       1  ZINC001091652821    0.1000
     40 H40        -2.7634    4.0898   48.9685 H       1  ZINC001091652821    0.0900
     41 H41        -2.6694    3.1141   50.4669 H       1  ZINC001091652821    0.0500
     42 H42        -1.8326    6.3437   49.2836 H       1  ZINC001091652821    0.0600
     43 H43        -0.1256    6.4751   49.7703 H       1  ZINC001091652821    0.0600
     44 H44        -0.5728    5.5065   48.3455 H       1  ZINC001091652821    0.0700
     45 H45        -2.4876    4.8124   51.8278 H       1  ZINC001091652821    0.0900
     46 H46        -1.1200    5.9600   51.9013 H       1  ZINC001091652821    0.0800
     47 H47        -3.2107    2.0521   54.9335 H       1  ZINC001091652821    0.1500
@<TRIPOS>BOND
     1     1     2    1
     2     1    26    1
     3     1    27    1
     4     1    28    1
     5     2    25    1
     6     2     3    2
     7     3     4    1
     8     3    29    1
     9     4     5    1
    10     5     6    1
    11     5    25    2
    12     6     7    2
    13     6     8   am
    14     8    24    1
    15     8     9    1
    16     9    10    1
    17     9    30    1
    18     9    31    1
    19    10    11    1
    20    10    22    1
    21    10    12    1
    22    12    13    1
    23    12    32    1
    24    12    33    1
    25    13    14    1
    26    13    21    1
    27    14    15    1
    28    14    34    1
    29    14    35    1
    30    15    20    1
    31    15    16    2
    32    16    17    1
    33    16    36    1
    34    17    18    1
    35    18    19    1
    36    18    20    2
    37    19    37    1
    38    19    38    1
    39    19    39    1
    40    21    22    1
    41    21    40    1
    42    21    41    1
    43    22    23    1
    44    22    24    1
    45    23    42    1
    46    23    43    1
    47    23    44    1
    48    24    45    1
    49    24    46    1
    50    25    47    1
@<TRIPOS>SUBSTRUCTURE
     1 ZINC001091652821        1 TEMP              0 ****  ****    0 ROOT


##########                                Name:    ZINC000618094467
##########                DOCK_Rotatable_Bonds:                   5
##########                         Heavy_Atoms:                  27
##########                    Molecular_Weight:             370.492
##########                DOCK_Rotatable_Bonds:                   5
##########                       Formal_Charge:                0.03
##########                     HBond_Acceptors:                   5
##########                        HBond_Donors:                   0
##########                         Heavy_Atoms:                  27
##########                          Grid_Score:          -28.099785
##########                     Grid_vdw_energy:          -26.976389
##########                      Grid_es_energy:           -1.123395
##########           Internal_energy_repulsive:           77.839088

@<TRIPOS>MOLECULE
ZINC000618094467
 57 59 1 0 0
SMALL
USER_CHARGES


@<TRIPOS>ATOM
      1 C1         -7.7919    1.6110   60.4797 C.3     1  ZINC000618094467   -0.1500
      2 C2         -9.0397    1.0394   59.8037 C.3     1  ZINC000618094467   -0.1000
      3 C3         -8.7013   -0.3090   59.1647 C.3     1  ZINC000618094467   -0.1100
      4 H4         -7.8866   -0.1792   58.4523 H       1  ZINC000618094467    0.1000
      5 C5         -8.2747   -1.2963   60.2530 C.3     1  ZINC000618094467   -0.1500
      6 C6         -9.9144   -0.8441   58.4486 C.2     1  ZINC000618094467    0.5200
      7 O7        -10.5518   -1.7551   58.9330 O.2     1  ZINC000618094467   -0.5000
      8 N8        -10.2913   -0.3103   57.2698 N.am    1  ZINC000618094467   -0.6100
      9 C9         -9.5420    0.7921   56.6576 C.3     1  ZINC000618094467    0.1400
     10 C10        -9.3580    0.5249   55.1848 C.ar    1  ZINC000618094467   -0.1000
     11 C11        -8.4693    1.3306   54.4866 C.ar    1  ZINC000618094467   -0.1100
     12 C12        -8.2660    1.1415   53.1348 C.ar    1  ZINC000618094467   -0.1200
     13 C13        -8.9538    0.1428   52.4715 C.ar    1  ZINC000618094467   -0.1100
     14 C14        -9.8343   -0.6612   53.1653 C.ar    1  ZINC000618094467   -0.1200
     15 C15       -10.0365   -0.4770   54.5275 C.ar    1  ZINC000618094467   -0.0600
     16 C16       -10.9917   -1.4101   55.2239 C.3     1  ZINC000618094467   -0.0800
     17 C17       -11.4676   -0.8145   56.5421 C.3     1  ZINC000618094467    0.1200
     18 H18       -12.1557    0.0082   56.3479 H       1  ZINC000618094467    0.1000
     19 C19       -12.1587   -1.8746   57.3604 C.2     1  ZINC000618094467    0.5500
     20 O20       -11.9093   -3.0462   57.1701 O.2     1  ZINC000618094467   -0.5200
     21 N21       -13.0539   -1.5208   58.3037 N.am    1  ZINC000618094467   -0.6100
     22 C22       -13.3667   -0.1050   58.5371 C.3     1  ZINC000618094467    0.1200
     23 C23       -14.8736    0.1062   58.3432 C.3     1  ZINC000618094467   -0.1600
     24 H24       -15.1535    1.0987   58.6964 H       1  ZINC000618094467    0.1100
     25 C25       -15.2266   -0.0314   56.8608 C.3     1  ZINC000618094467   -0.1400
     26 C26       -15.6106   -0.9457   59.1428 C.2     1  ZINC000618094467    0.3700
     27 O27       -16.4709   -0.6335   59.9307 O.2     1  ZINC000618094467   -0.4400
     28 C28       -15.2441   -2.3981   58.9310 C.3     1  ZINC000618094467   -0.1600
     29 H29       -15.5264   -2.7048   57.9239 H       1  ZINC000618094467    0.1100
     30 C30       -15.9723   -3.2682   59.9574 C.3     1  ZINC000618094467   -0.1400
     31 C31       -13.7324   -2.5469   59.1060 C.3     1  ZINC000618094467    0.1400
     32 H32        -7.0065    1.7480   59.7363 H       1  ZINC000618094467    0.0500
     33 H33        -8.0330    2.5715   60.9349 H       1  ZINC000618094467    0.0600
     34 H34        -7.4471    0.9204   61.2494 H       1  ZINC000618094467    0.0600
     35 H35        -9.8251    0.9023   60.5470 H       1  ZINC000618094467    0.0700
     36 H36        -9.3845    1.7299   59.0340 H       1  ZINC000618094467    0.0700
     37 H37        -9.0314   -1.3220   61.0371 H       1  ZINC000618094467    0.0700
     38 H38        -8.1669   -2.2905   59.8194 H       1  ZINC000618094467    0.0700
     39 H39        -7.3220   -0.9798   60.6775 H       1  ZINC000618094467    0.0700
     40 H40       -10.0928    1.7232   56.7912 H       1  ZINC000618094467    0.0900
     41 H41        -8.5661    0.8770   57.1356 H       1  ZINC000618094467    0.1100
     42 H42        -7.9332    2.1118   55.0050 H       1  ZINC000618094467    0.1300
     43 H43        -7.5725    1.7713   52.5974 H       1  ZINC000618094467    0.1300
     44 H44        -8.8025   -0.0075   51.4127 H       1  ZINC000618094467    0.1200
     45 H45       -10.3714   -1.4404   52.6449 H       1  ZINC000618094467    0.1200
     46 H46       -11.8518   -1.5896   54.5789 H       1  ZINC000618094467    0.0900
     47 H47       -10.4886   -2.3567   55.4211 H       1  ZINC000618094467    0.1000
     48 H48       -13.0874    0.1680   59.5546 H       1  ZINC000618094467    0.0700
     49 H49       -12.8168    0.5126   57.8268 H       1  ZINC000618094467    0.0900
     50 H50       -15.0339   -1.0535   56.5348 H       1  ZINC000618094467    0.0600
     51 H51       -16.2808    0.2039   56.7150 H       1  ZINC000618094467    0.0600
     52 H52       -14.6164    0.6574   56.2766 H       1  ZINC000618094467    0.0700
     53 H53       -17.0490   -3.1460   59.8386 H       1  ZINC000618094467    0.0700
     54 H54       -15.7060   -4.3136   59.8019 H       1  ZINC000618094467    0.0700
     55 H55       -15.6811   -2.9647   60.9629 H       1  ZINC000618094467    0.0600
     56 H56       -13.4217   -3.5371   58.7727 H       1  ZINC000618094467    0.1100
     57 H57       -13.4711   -2.4137   60.1558 H       1  ZINC000618094467    0.0700
@<TRIPOS>BOND
     1     1     2    1
     2     1    32    1
     3     1    33    1
     4     1    34    1
     5     2     3    1
     6     2    35    1
     7     2    36    1
     8     3     4    1
     9     3     5    1
    10     3     6    1
    11     5    37    1
    12     5    38    1
    13     5    39    1
    14     6     7    2
    15     6     8   am
    16     8    17    1
    17     8     9    1
    18     9    10    1
    19     9    40    1
    20     9    41    1
    21    10    15   ar
    22    10    11   ar
    23    11    12   ar
    24    11    42    1
    25    12    13   ar
    26    12    43    1
    27    13    14   ar
    28    13    44    1
    29    14    15   ar
    30    14    45    1
    31    15    16    1
    32    16    17    1
    33    16    46    1
    34    16    47    1
    35    17    18    1
    36    17    19    1
    37    19    20    2
    38    19    21   am
    39    21    31    1
    40    21    22    1
    41    22    23    1
    42    22    48    1
    43    22    49    1
    44    23    24    1
    45    23    25    1
    46    23    26    1
    47    25    50    1
    48    25    51    1
    49    25    52    1
    50    26    27    2
    51    26    28    1
    52    28    29    1
    53    28    30    1
    54    28    31    1
    55    30    53    1
    56    30    54    1
    57    30    55    1
    58    31    56    1
    59    31    57    1
@<TRIPOS>SUBSTRUCTURE
     1 ZINC000618094467        1 TEMP              0 ****  ****    0 ROOT


##########                                Name:    ZINC000550011575
##########                DOCK_Rotatable_Bonds:                   6
##########                         Heavy_Atoms:                  28
##########                    Molecular_Weight:             423.935
##########                DOCK_Rotatable_Bonds:                   6
##########                       Formal_Charge:          -0.0100002
##########                     HBond_Acceptors:                   7
##########                        HBond_Donors:                   0
##########                         Heavy_Atoms:                  28
##########                          Grid_Score:          -28.096006
##########                     Grid_vdw_energy:          -28.519882
##########                      Grid_es_energy:            0.423876
##########           Internal_energy_repulsive:           31.928251

@<TRIPOS>MOLECULE
ZINC000550011575
 51 53 1 0 0
SMALL
USER_CHARGES


@<TRIPOS>ATOM
      1 C1         -8.9499   -1.3373   61.6450 C.3     1  ZINC000550011575   -0.1400
      2 C2         -9.5219   -0.6725   60.3913 C.3     1  ZINC000550011575   -0.6100
      3 H3        -10.1294    0.1853   60.6799 H       1  ZINC000550011575    0.1500
      4 C4         -8.3920   -0.2129   59.5063 C.2     1  ZINC000550011575    0.5400
      5 O5         -7.3888   -0.8867   59.4047 O.2     1  ZINC000550011575   -0.5100
      6 N6         -8.4964    0.9469   58.8279 N.am    1  ZINC000550011575   -0.6000
      7 C7         -9.7076    1.7617   58.9520 C.3     1  ZINC000550011575    0.0600
      8 C8         -7.3988    1.3928   57.9662 C.3     1  ZINC000550011575    0.1500
      9 C9         -7.2614    2.8905   58.0618 C.ar    1  ZINC000550011575   -0.1500
     10 C10        -6.9127    3.4784   59.2654 C.ar    1  ZINC000550011575    0.1400
     11 F11        -6.6955    2.7099   60.3552 F       1  ZINC000550011575   -0.1100
     12 C12        -6.7863    4.8548   59.3518 C.ar    1  ZINC000550011575   -0.1500
     13 C13        -7.0081    5.6404   58.2369 C.ar    1  ZINC000550011575   -0.0700
     14 C14        -7.3563    5.0531   57.0347 C.ar    1  ZINC000550011575   -0.1300
     15 C15        -7.4780    3.6780   56.9453 C.ar    1  ZINC000550011575    0.0000
     16 Cl16       -7.9145    2.9415   55.4351 Cl      1  ZINC000550011575   -0.0500
     17 S17       -10.5495   -1.8651   59.4898 S.o2    1  ZINC000550011575    2.4500
     18 O18       -10.3030   -1.7143   58.0984 O.2     1  ZINC000550011575   -0.9200
     19 O19       -10.3895   -3.1439   60.0882 O.2     1  ZINC000550011575   -0.9100
     20 C20       -12.2230   -1.2644   59.8487 C.3     1  ZINC000550011575   -0.5300
     21 H21       -12.4033   -0.3467   59.2889 H       1  ZINC000550011575    0.1500
     22 C22       -12.3444   -0.9745   61.3434 C.3     1  ZINC000550011575   -0.1100
     23 C23       -13.8147   -0.6789   61.6615 C.3     1  ZINC000550011575   -0.1100
     24 C24       -14.6086   -1.9761   61.5202 C.3     1  ZINC000550011575   -0.0900
     25 C25       -14.3259   -2.6276   60.1918 C.ar    1  ZINC000550011575   -0.0600
     26 C26       -15.2220   -3.5867   59.7383 C.ar    1  ZINC000550011575   -0.1200
     27 C27       -15.0160   -4.2239   58.5320 C.ar    1  ZINC000550011575   -0.1100
     28 C28       -13.9085   -3.9063   57.7683 C.ar    1  ZINC000550011575   -0.1100
     29 C29       -13.0183   -2.9519   58.2161 C.ar    1  ZINC000550011575   -0.1500
     30 C30       -13.2258   -2.3072   59.4290 C.ar    1  ZINC000550011575   -0.0800
     31 H31        -9.7540   -1.5217   62.3575 H       1  ZINC000550011575    0.0900
     32 H32        -8.4815   -2.2832   61.3731 H       1  ZINC000550011575    0.0900
     33 H33        -8.2069   -0.6807   62.0975 H       1  ZINC000550011575    0.0800
     34 H34        -9.5892    2.4654   59.7759 H       1  ZINC000550011575    0.0700
     35 H35        -9.8721    2.3115   58.0253 H       1  ZINC000550011575    0.0800
     36 H36       -10.5625    1.1144   59.1471 H       1  ZINC000550011575    0.0700
     37 H37        -6.4700    0.9215   58.2878 H       1  ZINC000550011575    0.1000
     38 H38        -7.6100    1.1124   56.9342 H       1  ZINC000550011575    0.1100
     39 H39        -6.5147    5.3142   60.2907 H       1  ZINC000550011575    0.1500
     40 H40        -6.9098    6.7137   58.3047 H       1  ZINC000550011575    0.1500
     41 H41        -7.5298    5.6681   56.1640 H       1  ZINC000550011575    0.1400
     42 H42       -12.0127   -1.8422   61.9136 H       1  ZINC000550011575    0.0800
     43 H43       -11.7322   -0.1100   61.6004 H       1  ZINC000550011575    0.0900
     44 H44       -13.9016   -0.3047   62.6816 H       1  ZINC000550011575    0.0800
     45 H45       -14.1991    0.0647   60.9633 H       1  ZINC000550011575    0.0700
     46 H46       -14.3278   -2.6586   62.3222 H       1  ZINC000550011575    0.0800
     47 H47       -15.6735   -1.7555   61.5930 H       1  ZINC000550011575    0.0800
     48 H48       -16.0870   -3.8360   60.3349 H       1  ZINC000550011575    0.1300
     49 H49       -15.7174   -4.9686   58.1858 H       1  ZINC000550011575    0.1300
     50 H50       -13.7403   -4.4038   56.8245 H       1  ZINC000550011575    0.1300
     51 H51       -12.1529   -2.7048   57.6191 H       1  ZINC000550011575    0.1700
@<TRIPOS>BOND
     1     1     2    1
     2     1    31    1
     3     1    32    1
     4     1    33    1
     5     2     3    1
     6     2     4    1
     7     2    17    1
     8     4     5    2
     9     4     6   am
    10     6     7    1
    11     6     8    1
    12     7    34    1
    13     7    35    1
    14     7    36    1
    15     8     9    1
    16     8    37    1
    17     8    38    1
    18     9    15   ar
    19     9    10   ar
    20    10    11    1
    21    10    12   ar
    22    12    13   ar
    23    12    39    1
    24    13    14   ar
    25    13    40    1
    26    14    15   ar
    27    14    41    1
    28    15    16    1
    29    17    18    2
    30    17    19    2
    31    17    20    1
    32    20    21    1
    33    20    30    1
    34    20    22    1
    35    22    23    1
    36    22    42    1
    37    22    43    1
    38    23    24    1
    39    23    44    1
    40    23    45    1
    41    24    25    1
    42    24    46    1
    43    24    47    1
    44    25    30   ar
    45    25    26   ar
    46    26    27   ar
    47    26    48    1
    48    27    28   ar
    49    27    49    1
    50    28    29   ar
    51    28    50    1
    52    29    30   ar
    53    29    51    1
@<TRIPOS>SUBSTRUCTURE
     1 ZINC000550011575        1 TEMP              0 ****  ****    0 ROOT


##########                                Name:    ZINC001120957943
##########                DOCK_Rotatable_Bonds:                   4
##########                         Heavy_Atoms:                  27
##########                    Molecular_Weight:             396.802
##########                DOCK_Rotatable_Bonds:                   4
##########                       Formal_Charge:          -0.0199996
##########                     HBond_Acceptors:                  10
##########                        HBond_Donors:                   0
##########                         Heavy_Atoms:                  27
##########                          Grid_Score:          -28.076235
##########                     Grid_vdw_energy:          -28.397596
##########                      Grid_es_energy:            0.321362
##########           Internal_energy_repulsive:            9.002879

@<TRIPOS>MOLECULE
ZINC001120957943
 43 46 1 0 0
SMALL
USER_CHARGES


@<TRIPOS>ATOM
      1 C1         -1.5136    1.6334   44.9094 C.3     1  ZINC001120957943    0.0900
      2 N2         -1.2680    1.0361   46.2244 N.pl3   1  ZINC001120957943   -0.6000
      3 C3         -0.5677   -0.2465   46.3271 C.3     1  ZINC001120957943    0.2200
      4 C4          0.7337   -0.0508   47.0613 C.2     1  ZINC001120957943    0.1600
      5 N5          1.0691   -0.5878   48.2063 N.2     1  ZINC001120957943   -0.2500
      6 N6          2.2537   -0.2024   48.5376 N.2     1  ZINC001120957943   -0.2800
      7 C7          2.7217    0.5927   47.6241 C.2     1  ZINC001120957943    0.1700
      8 C8          4.0586    1.2890   47.5801 C.3     1  ZINC001120957943   -0.0300
      9 C9          3.9810    2.4060   46.5307 C.3     1  ZINC001120957943   -0.1300
     10 C10         3.3868    1.8439   45.2360 C.3     1  ZINC001120957943   -0.1500
     11 H11         3.9213    0.9363   44.9554 H       1  ZINC001120957943    0.1300
     12 C12         3.5235    2.8815   44.1201 C.3     1  ZINC001120957943    0.4600
     13 F13         4.8752    3.1902   43.9333 F       1  ZINC001120957943   -0.1700
     14 F14         2.9955    2.3621   42.9330 F       1  ZINC001120957943   -0.1800
     15 F15         2.8248    4.0410   44.4731 F       1  ZINC001120957943   -0.1800
     16 C16         1.9041    1.5176   45.4504 C.3     1  ZINC001120957943    0.1100
     17 N17         1.7735    0.7055   46.6597 N.pl3   1  ZINC001120957943   -0.4700
     18 C18        -1.6988    1.6851   47.3721 C.ar    1  ZINC001120957943    0.3700
     19 C19        -2.1795    0.9344   48.4593 C.ar    1  ZINC001120957943    0.0500
     20 N20        -2.5905    1.5305   49.5525 N.ar    1  ZINC001120957943   -0.3900
     21 C21        -2.5534    2.8662   49.6377 C.ar    1  ZINC001120957943    0.0400
     22 C22        -2.9875    3.5289   50.7981 C.ar    1  ZINC001120957943   -0.0600
     23 C23        -2.9384    4.8889   50.8579 C.ar    1  ZINC001120957943   -0.0400
     24 Cl24       -3.4759    5.7024   52.2941 Cl      1  ZINC001120957943   -0.0600
     25 C25        -2.4618    5.6368   49.7816 C.ar    1  ZINC001120957943   -0.0800
     26 C26        -2.0334    5.0282   48.6422 C.ar    1  ZINC001120957943   -0.0800
     27 C27        -2.0697    3.6266   48.5443 C.ar    1  ZINC001120957943    0.1400
     28 N28        -1.6492    3.0021   47.4373 N.ar    1  ZINC001120957943   -0.4700
     29 H29        -2.4731    1.2862   44.5260 H       1  ZINC001120957943    0.0700
     30 H30        -1.5304    2.7193   45.0009 H       1  ZINC001120957943    0.0800
     31 H31        -0.7199    1.3389   44.2226 H       1  ZINC001120957943    0.0700
     32 H32        -1.1891   -0.9570   46.8722 H       1  ZINC001120957943    0.1200
     33 H33        -0.3666   -0.6317   45.3275 H       1  ZINC001120957943    0.1000
     34 H34         4.2830    1.7169   48.5572 H       1  ZINC001120957943    0.1100
     35 H35         4.8355    0.5766   47.3026 H       1  ZINC001120957943    0.1000
     36 H36         3.3472    3.2111   46.9024 H       1  ZINC001120957943    0.0900
     37 H37         4.9817    2.7911   46.3344 H       1  ZINC001120957943    0.1000
     38 H38         1.3390    2.4427   45.5641 H       1  ZINC001120957943    0.1000
     39 H39         1.5255    0.9583   44.5949 H       1  ZINC001120957943    0.1100
     40 H40        -2.2109   -0.1431   48.3932 H       1  ZINC001120957943    0.1700
     41 H41        -3.3588    2.9623   51.6392 H       1  ZINC001120957943    0.1500
     42 H42        -2.4328    6.7141   49.8530 H       1  ZINC001120957943    0.1400
     43 H43        -1.6671    5.6200   47.8163 H       1  ZINC001120957943    0.1500
@<TRIPOS>BOND
     1     1     2    1
     2     1    29    1
     3     1    30    1
     4     1    31    1
     5     2     3    1
     6     2    18    1
     7     3     4    1
     8     3    32    1
     9     3    33    1
    10     4    17    1
    11     4     5    2
    12     5     6    1
    13     6     7    2
    14     7    17    1
    15     7     8    1
    16     8     9    1
    17     8    34    1
    18     8    35    1
    19     9    10    1
    20     9    36    1
    21     9    37    1
    22    10    11    1
    23    10    12    1
    24    10    16    1
    25    12    13    1
    26    12    14    1
    27    12    15    1
    28    16    17    1
    29    16    38    1
    30    16    39    1
    31    18    28   ar
    32    18    19   ar
    33    19    20   ar
    34    19    40    1
    35    20    21   ar
    36    21    27   ar
    37    21    22   ar
    38    22    23   ar
    39    22    41    1
    40    23    24    1
    41    23    25   ar
    42    25    26   ar
    43    25    42    1
    44    26    27   ar
    45    26    43    1
    46    27    28   ar
@<TRIPOS>SUBSTRUCTURE
     1 ZINC001120957943        1 TEMP              0 ****  ****    0 ROOT


##########                                Name:    ZINC000440379747
##########                DOCK_Rotatable_Bonds:                   8
##########                         Heavy_Atoms:                  27
##########                    Molecular_Weight:             394.452
##########                DOCK_Rotatable_Bonds:                   8
##########                       Formal_Charge:           0.0199995
##########                     HBond_Acceptors:                  10
##########                        HBond_Donors:                   3
##########                         Heavy_Atoms:                  27
##########                          Grid_Score:          -28.030249
##########                     Grid_vdw_energy:          -26.066027
##########                      Grid_es_energy:           -1.964222
##########           Internal_energy_repulsive:           17.398052

@<TRIPOS>MOLECULE
ZINC000440379747
 49 51 1 0 0
SMALL
USER_CHARGES


@<TRIPOS>ATOM
      1 C1          1.4137    4.1918   44.2851 C.3     1  ZINC000440379747   -0.1800
      2 C2          1.0088    4.2862   45.7336 C.2     1  ZINC000440379747    0.5200
      3 O3          1.6530    4.9712   46.4999 O.2     1  ZINC000440379747   -0.5200
      4 N4         -0.0688    3.6095   46.1777 N.am    1  ZINC000440379747   -0.5500
      5 C5         -0.9223    2.7527   45.3503 C.3     1  ZINC000440379747    0.1100
      6 C6         -2.0001    2.2140   46.3051 C.3     1  ZINC000440379747   -0.0900
      7 C7         -1.6632    2.8274   47.6456 C.ar    1  ZINC000440379747   -0.1100
      8 C8         -2.2783    2.7059   48.8756 C.ar    1  ZINC000440379747   -0.0700
      9 C9         -1.7705    3.3813   49.9782 C.ar    1  ZINC000440379747    0.1200
     10 N10        -2.3920    3.2590   51.2247 N.am    1  ZINC000440379747   -0.6400
     11 C11        -3.1623    4.2601   51.6948 C.2     1  ZINC000440379747    0.5100
     12 O12        -3.3163    5.2679   51.0361 O.2     1  ZINC000440379747   -0.4900
     13 C13        -3.8261    4.1294   53.0261 C.2     1  ZINC000440379747    0.5200
     14 O14        -5.0350    4.1952   53.1106 O.2     1  ZINC000440379747   -0.5100
     15 N15        -3.0826    3.9383   54.1340 N.am    1  ZINC000440379747   -0.5800
     16 C16        -1.6122    3.8394   54.1754 C.3     1  ZINC000440379747    0.1000
     17 C17        -1.2280    4.2468   55.6197 C.3     1  ZINC000440379747   -0.1300
     18 C18        -2.3894    3.6239   56.4385 C.3     1  ZINC000440379747   -0.1600
     19 C19        -3.6032    3.8002   55.5019 C.3     1  ZINC000440379747    0.1500
     20 H20        -4.1619    4.6929   55.7831 H       1  ZINC000440379747    0.1000
     21 C21        -4.5098    2.5707   55.5880 C.3     1  ZINC000440379747   -0.6500
     22 S22        -5.9224    2.9354   56.6660 S.o2    1  ZINC000440379747    2.6200
     23 N23        -6.8923    3.9223   55.7563 N.am    1  ZINC000440379747   -1.2500
     24 O24        -6.7061    1.7682   56.8731 O.2     1  ZINC000440379747   -0.9500
     25 O25        -5.5190    3.7503   57.7579 O.2     1  ZINC000440379747   -0.9500
     26 C26        -0.6417    4.1786   49.8363 C.ar    1  ZINC000440379747   -0.1000
     27 C27        -0.0294    4.2985   48.6079 C.ar    1  ZINC000440379747   -0.1400
     28 C28        -0.5330    3.6171   47.4981 C.ar    1  ZINC000440379747    0.1400
     29 H29         2.3007    4.8019   44.1152 H       1  ZINC000440379747    0.1000
     30 H30         1.6336    3.1536   44.0363 H       1  ZINC000440379747    0.1000
     31 H31         0.5993    4.5515   43.6562 H       1  ZINC000440379747    0.1000
     32 H32        -1.3818    3.3352   44.5517 H       1  ZINC000440379747    0.0900
     33 H33        -0.3415    1.9302   44.9332 H       1  ZINC000440379747    0.0900
     34 H34        -2.9902    2.5327   45.9793 H       1  ZINC000440379747    0.0900
     35 H35        -1.9490    1.1266   46.3611 H       1  ZINC000440379747    0.1000
     36 H36        -3.1558    2.0851   48.9806 H       1  ZINC000440379747    0.1400
     37 H37        -2.2688    2.4536   51.7512 H       1  ZINC000440379747    0.4200
     38 H38        -1.2949    2.8166   53.9727 H       1  ZINC000440379747    0.0800
     39 H39        -1.1655    4.5258   53.4561 H       1  ZINC000440379747    0.1000
     40 H40        -0.2706    3.8120   55.9068 H       1  ZINC000440379747    0.1000
     41 H41        -1.2111    5.3313   55.7284 H       1  ZINC000440379747    0.0800
     42 H42        -2.1999    2.5689   56.6356 H       1  ZINC000440379747    0.1000
     43 H43        -2.5413    4.1702   57.3696 H       1  ZINC000440379747    0.1000
     44 H44        -4.8697    2.3142   54.5917 H       1  ZINC000440379747    0.1500
     45 H45        -3.9468    1.7323   55.9980 H       1  ZINC000440379747    0.1400
     46 H46        -6.5533    4.7721   55.4338 H       1  ZINC000440379747    0.4100
     47 H47        -7.7994    3.6508   55.5459 H       1  ZINC000440379747    0.4200
     48 H48        -0.2436    4.7059   50.6905 H       1  ZINC000440379747    0.1400
     49 H49         0.8476    4.9201   48.5036 H       1  ZINC000440379747    0.1500
@<TRIPOS>BOND
     1     1     2    1
     2     1    29    1
     3     1    30    1
     4     1    31    1
     5     2     3    2
     6     2     4   am
     7     4    28    1
     8     4     5    1
     9     5     6    1
    10     5    32    1
    11     5    33    1
    12     6     7    1
    13     6    34    1
    14     6    35    1
    15     7    28   ar
    16     7     8   ar
    17     8     9   ar
    18     8    36    1
    19     9    10    1
    20     9    26   ar
    21    10    11   am
    22    10    37    1
    23    11    12    2
    24    11    13    1
    25    13    14    2
    26    13    15   am
    27    15    19    1
    28    15    16    1
    29    16    17    1
    30    16    38    1
    31    16    39    1
    32    17    18    1
    33    17    40    1
    34    17    41    1
    35    18    19    1
    36    18    42    1
    37    18    43    1
    38    19    20    1
    39    19    21    1
    40    21    22    1
    41    21    44    1
    42    21    45    1
    43    22    23   am
    44    22    24    2
    45    22    25    2
    46    23    46    1
    47    23    47    1
    48    26    27   ar
    49    26    48    1
    50    27    28   ar
    51    27    49    1
@<TRIPOS>SUBSTRUCTURE
     1 ZINC000440379747        1 TEMP              0 ****  ****    0 ROOT


##########                                Name:    ZINC000225856071
##########                DOCK_Rotatable_Bonds:                   6
##########                         Heavy_Atoms:                  29
##########                    Molecular_Weight:             409.549
##########                DOCK_Rotatable_Bonds:                   6
##########                       Formal_Charge:         -0.00999989
##########                     HBond_Acceptors:                   5
##########                        HBond_Donors:                   1
##########                         Heavy_Atoms:                  29
##########                          Grid_Score:          -28.029015
##########                     Grid_vdw_energy:          -27.530569
##########                      Grid_es_energy:           -0.498445
##########           Internal_energy_repulsive:           37.853741

@<TRIPOS>MOLECULE
ZINC000225856071
 56 58 1 0 0
SMALL
USER_CHARGES


@<TRIPOS>ATOM
      1 C1          2.9478    0.5089   40.7735 C.3     1  ZINC000225856071    0.0200
      2 O2          3.4895    0.9906   42.0049 O.3     1  ZINC000225856071   -0.3100
      3 C3          2.6311    1.6134   42.8548 C.ar    1  ZINC000225856071    0.1900
      4 C4          1.4600    0.9815   43.2459 C.ar    1  ZINC000225856071   -0.2300
      5 C5          0.5891    1.6166   44.1105 C.ar    1  ZINC000225856071    0.0700
      6 C6         -0.6834    0.9305   44.5358 C.3     1  ZINC000225856071   -0.1800
      7 C7          0.8844    2.8807   44.5859 C.ar    1  ZINC000225856071   -0.7100
      8 S8         -0.2278    3.6877   45.6886 S.o2    1  ZINC000225856071    2.7000
      9 O9          0.4736    4.8029   46.2211 O.2     1  ZINC000225856071   -0.9600
     10 O10        -1.4638    3.8048   44.9973 O.2     1  ZINC000225856071   -0.9500
     11 N11        -0.4967    2.6559   46.9557 N.am    1  ZINC000225856071   -1.1100
     12 C12         0.6234    2.2115   47.7889 C.3     1  ZINC000225856071    0.2400
     13 H13         1.5630    2.4341   47.2832 H       1  ZINC000225856071    0.1100
     14 C14         0.5179    0.7265   48.0220 C.ar    1  ZINC000225856071   -0.1000
     15 C15         1.6637   -0.0353   48.1556 C.ar    1  ZINC000225856071   -0.1000
     16 C16         1.5670   -1.3976   48.3695 C.ar    1  ZINC000225856071   -0.1200
     17 C17         0.3245   -1.9980   48.4502 C.ar    1  ZINC000225856071   -0.1100
     18 C18        -0.8213   -1.2361   48.3175 C.ar    1  ZINC000225856071   -0.1100
     19 C19        -0.7247    0.1268   48.1080 C.ar    1  ZINC000225856071   -0.1000
     20 C20         0.5820    2.9319   49.1120 C.ar    1  ZINC000225856071   -0.0900
     21 C21        -0.6293    3.3348   49.6418 C.ar    1  ZINC000225856071   -0.1000
     22 C22        -0.6672    3.9957   50.8556 C.ar    1  ZINC000225856071   -0.1200
     23 C23         0.5060    4.2530   51.5393 C.ar    1  ZINC000225856071   -0.0800
     24 C24         0.4646    4.9738   52.8621 C.3     1  ZINC000225856071   -0.1200
     25 C25         1.7176    3.8488   51.0100 C.ar    1  ZINC000225856071   -0.1200
     26 C26         1.7552    3.1848   49.7984 C.ar    1  ZINC000225856071   -0.0600
     27 C27         3.0757    2.7440   49.2214 C.3     1  ZINC000225856071   -0.1300
     28 C28         2.0516    3.5127   44.1977 C.ar    1  ZINC000225856071    0.0200
     29 C29         2.9275    2.8802   43.3371 C.ar    1  ZINC000225856071   -0.1400
     30 C30         4.1995    3.5694   42.9149 C.3     1  ZINC000225856071   -0.1100
     31 H31         2.5305    1.3429   40.2091 H       1  ZINC000225856071    0.0600
     32 H32         3.7371    0.0344   40.1903 H       1  ZINC000225856071    0.1000
     33 H33         2.1627   -0.2180   40.9816 H       1  ZINC000225856071    0.0600
     34 H34         1.2288   -0.0061   42.8749 H       1  ZINC000225856071    0.1400
     35 H35        -0.5006    0.3565   45.4442 H       1  ZINC000225856071    0.0900
     36 H36        -1.4528    1.6784   44.7274 H       1  ZINC000225856071    0.1000
     37 H37        -1.0174    0.2605   43.7436 H       1  ZINC000225856071    0.0800
     38 H38        -1.3958    2.3457   47.1463 H       1  ZINC000225856071    0.4200
     39 H39         2.6344    0.4339   48.0926 H       1  ZINC000225856071    0.1200
     40 H40         2.4622   -1.9928   48.4731 H       1  ZINC000225856071    0.1200
     41 H41         0.2489   -3.0624   48.6166 H       1  ZINC000225856071    0.1200
     42 H42        -1.7920   -1.7053   48.3803 H       1  ZINC000225856071    0.1200
     43 H43        -1.6198    0.7221   48.0043 H       1  ZINC000225856071    0.1200
     44 H44        -1.5461    3.1337   49.1075 H       1  ZINC000225856071    0.1200
     45 H45        -1.6137    4.3111   51.2693 H       1  ZINC000225856071    0.1200
     46 H46         0.3679    4.2473   53.6689 H       1  ZINC000225856071    0.0700
     47 H47         1.3846    5.5433   52.9945 H       1  ZINC000225856071    0.0700
     48 H48        -0.3884    5.6521   52.8797 H       1  ZINC000225856071    0.0700
     49 H49         2.6343    4.0495   51.5445 H       1  ZINC000225856071    0.1200
     50 H50         3.3083    1.7386   49.5724 H       1  ZINC000225856071    0.0800
     51 H51         3.0148    2.7439   48.1330 H       1  ZINC000225856071    0.0700
     52 H52         3.8594    3.4309   49.5413 H       1  ZINC000225856071    0.0700
     53 H53         2.2803    4.5001   44.5708 H       1  ZINC000225856071    0.1500
     54 H54         4.9967    3.3221   43.6161 H       1  ZINC000225856071    0.0700
     55 H55         4.4787    3.2362   41.9154 H       1  ZINC000225856071    0.0700
     56 H56         4.0433    4.6481   42.9081 H       1  ZINC000225856071    0.0700
@<TRIPOS>BOND
     1     1     2    1
     2     1    31    1
     3     1    32    1
     4     1    33    1
     5     2     3    1
     6     3    29   ar
     7     3     4   ar
     8     4     5   ar
     9     4    34    1
    10     5     6    1
    11     5     7   ar
    12     6    35    1
    13     6    36    1
    14     6    37    1
    15     7     8    1
    16     7    28   ar
    17     8     9    2
    18     8    10    2
    19     8    11   am
    20    11    12    1
    21    11    38    1
    22    12    13    1
    23    12    14    1
    24    12    20    1
    25    14    19   ar
    26    14    15   ar
    27    15    16   ar
    28    15    39    1
    29    16    17   ar
    30    16    40    1
    31    17    18   ar
    32    17    41    1
    33    18    19   ar
    34    18    42    1
    35    19    43    1
    36    20    26   ar
    37    20    21   ar
    38    21    22   ar
    39    21    44    1
    40    22    23   ar
    41    22    45    1
    42    23    24    1
    43    23    25   ar
    44    24    46    1
    45    24    47    1
    46    24    48    1
    47    25    26   ar
    48    25    49    1
    49    26    27    1
    50    27    50    1
    51    27    51    1
    52    27    52    1
    53    28    29   ar
    54    28    53    1
    55    29    30    1
    56    30    54    1
    57    30    55    1
    58    30    56    1
@<TRIPOS>SUBSTRUCTURE
     1 ZINC000225856071        1 TEMP              0 ****  ****    0 ROOT


##########                                Name:    ZINC000919225759
##########                DOCK_Rotatable_Bonds:                   4
##########                         Heavy_Atoms:                  27
##########                    Molecular_Weight:             375.295
##########                DOCK_Rotatable_Bonds:                   4
##########                       Formal_Charge:                0.04
##########                     HBond_Acceptors:                  11
##########                        HBond_Donors:                   0
##########                         Heavy_Atoms:                  27
##########                          Grid_Score:          -28.001360
##########                     Grid_vdw_energy:          -26.705910
##########                      Grid_es_energy:           -1.295449
##########           Internal_energy_repulsive:            6.839163

@<TRIPOS>MOLECULE
ZINC000919225759
 40 41 1 0 0
SMALL
USER_CHARGES


@<TRIPOS>ATOM
      1 C1        -13.7657    0.0157   60.9784 C.3     1  ZINC000919225759   -0.1500
      2 C2        -13.6943   -1.2079   60.1015 C.ar    1  ZINC000919225759    0.0900
      3 C3        -12.4576   -1.7813   59.7997 C.ar    1  ZINC000919225759   -0.1200
      4 C4        -11.2151   -1.1912   60.3385 C.2     1  ZINC000919225759    0.5200
      5 O5        -10.9830   -1.2466   61.5294 O.2     1  ZINC000919225759   -0.4700
      6 O6        -10.3393   -0.5918   59.5087 O.3     1  ZINC000919225759   -0.3400
      7 C7         -9.0689   -0.1788   60.0778 C.3     1  ZINC000919225759    0.1400
      8 H8         -9.2339    0.2366   61.0720 H       1  ZINC000919225759    0.1100
      9 C9         -8.1379   -1.3887   60.1789 C.3     1  ZINC000919225759   -0.1700
     10 C10        -8.4391    0.8673   59.1945 C.ar    1  ZINC000919225759   -0.1000
     11 C11        -7.6971    1.8897   59.7554 C.ar    1  ZINC000919225759   -0.0400
     12 C12        -7.1194    2.8494   58.9451 C.ar    1  ZINC000919225759   -0.1100
     13 C13        -7.2834    2.7863   57.5743 C.ar    1  ZINC000919225759   -0.0500
     14 C14        -8.0248    1.7630   57.0131 C.ar    1  ZINC000919225759   -0.0400
     15 N15        -8.2008    1.6957   55.5451 N.pl3   1  ZINC000919225759    0.0300
     16 O16        -7.6925    2.5417   54.8313 O.2     1  ZINC000919225759   -0.1500
     17 O17        -8.8540    0.7944   55.0507 O.2     1  ZINC000919225759   -0.1500
     18 C18        -8.5988    0.8012   57.8229 C.ar    1  ZINC000919225759   -0.0400
     19 C19       -12.4006   -2.9153   58.9868 C.ar    1  ZINC000919225759    0.0500
     20 C20       -13.5646   -3.4612   58.4877 C.ar    1  ZINC000919225759   -0.0600
     21 N21       -13.5062   -4.6636   57.6262 N.pl3   1  ZINC000919225759    0.0300
     22 O22       -12.4310   -5.1695   57.3589 O.2     1  ZINC000919225759   -0.1300
     23 O23       -14.5333   -5.1468   57.1845 O.2     1  ZINC000919225759   -0.1300
     24 C24       -14.7871   -2.8878   58.7906 C.ar    1  ZINC000919225759    0.0400
     25 C25       -14.8512   -1.7674   59.5997 C.ar    1  ZINC000919225759   -0.0500
     26 N26       -16.1633   -1.1612   59.9189 N.pl3   1  ZINC000919225759    0.0200
     27 O27       -17.0368   -1.1184   59.0712 O.2     1  ZINC000919225759   -0.1300
     28 O28       -16.3695   -0.7053   61.0294 O.2     1  ZINC000919225759   -0.1200
     29 H29       -13.7380   -0.2858   62.0255 H       1  ZINC000919225759    0.1200
     30 H30       -12.9172    0.6657   60.7648 H       1  ZINC000919225759    0.1200
     31 H31       -14.6934    0.5519   60.7789 H       1  ZINC000919225759    0.0900
     32 H32        -7.9728   -1.8041   59.1848 H       1  ZINC000919225759    0.0700
     33 H33        -7.1841   -1.0786   60.6060 H       1  ZINC000919225759    0.0900
     34 H34        -8.5933   -2.1453   60.8177 H       1  ZINC000919225759    0.0700
     35 H35        -7.5690    1.9390   60.8266 H       1  ZINC000919225759    0.1500
     36 H36        -6.5401    3.6487   59.3835 H       1  ZINC000919225759    0.1500
     37 H37        -6.8326    3.5364   56.9413 H       1  ZINC000919225759    0.1600
     38 H38        -9.1780    0.0019   57.3846 H       1  ZINC000919225759    0.1600
     39 H39       -11.4472   -3.3636   58.7492 H       1  ZINC000919225759    0.1900
     40 H40       -15.6956   -3.3192   58.3968 H       1  ZINC000919225759    0.1900
@<TRIPOS>BOND
     1     1     2    1
     2     1    29    1
     3     1    30    1
     4     1    31    1
     5     2    25   ar
     6     2     3   ar
     7     3     4    1
     8     3    19   ar
     9     4     5    2
    10     4     6    1
    11     6     7    1
    12     7     8    1
    13     7     9    1
    14     7    10    1
    15     9    32    1
    16     9    33    1
    17     9    34    1
    18    10    18   ar
    19    10    11   ar
    20    11    12   ar
    21    11    35    1
    22    12    13   ar
    23    12    36    1
    24    13    14   ar
    25    13    37    1
    26    14    15    1
    27    14    18   ar
    28    15    16    2
    29    15    17    2
    30    18    38    1
    31    19    20   ar
    32    19    39    1
    33    20    21    1
    34    20    24   ar
    35    21    22    2
    36    21    23    2
    37    24    25   ar
    38    24    40    1
    39    25    26    1
    40    26    27    2
    41    26    28    2
@<TRIPOS>SUBSTRUCTURE
     1 ZINC000919225759        1 TEMP              0 ****  ****    0 ROOT


##########                                Name:    ZINC000151303733
##########                DOCK_Rotatable_Bonds:                   7
##########                         Heavy_Atoms:                  26
##########                    Molecular_Weight:             369.444
##########                DOCK_Rotatable_Bonds:                   7
##########                       Formal_Charge:        -1.93715e-07
##########                     HBond_Acceptors:                   7
##########                        HBond_Donors:                   2
##########                         Heavy_Atoms:                  26
##########                          Grid_Score:          -27.997351
##########                     Grid_vdw_energy:          -26.970657
##########                      Grid_es_energy:           -1.026693
##########           Internal_energy_repulsive:            8.686233

@<TRIPOS>MOLECULE
ZINC000151303733
 45 48 1 0 0
SMALL
USER_CHARGES


@<TRIPOS>ATOM
      1 C1         -2.6980    5.7674   54.8874 C.3     1  ZINC000151303733   -0.1000
      2 C2         -1.5081    4.8610   55.0710 C.2     1  ZINC000151303733   -0.1200
      3 C3         -0.6945    4.9494   56.1240 C.2     1  ZINC000151303733   -0.2000
      4 S4          0.5735    3.7374   55.9971 S.3     1  ZINC000151303733    0.1200
      5 C5         -0.0888    3.1575   54.4745 C.2     1  ZINC000151303733   -0.2400
      6 C6         -1.1788    3.8670   54.1600 C.2     1  ZINC000151303733    0.1200
      7 N7         -1.9271    3.6302   52.9920 N.am    1  ZINC000151303733   -0.6400
      8 C8         -1.3035    3.5256   51.8018 C.2     1  ZINC000151303733    0.5100
      9 O9         -0.0971    3.6355   51.7374 O.2     1  ZINC000151303733   -0.5100
     10 C10        -2.1049    3.2721   50.5509 C.3     1  ZINC000151303733    0.1000
     11 N11        -1.2310    2.7142   49.5158 N.am    1  ZINC000151303733   -0.7100
     12 C12        -1.7552    2.2856   48.3505 C.2     1  ZINC000151303733    0.5200
     13 O13        -2.9505    2.3604   48.1594 O.2     1  ZINC000151303733   -0.5100
     14 C14        -0.8561    1.7134   47.2851 C.3     1  ZINC000151303733    0.1600
     15 H15        -1.4296    1.5111   46.3805 H       1  ZINC000151303733    0.1300
     16 C16        -0.2062    0.4460   47.7810 C.ar    1  ZINC000151303733   -0.0900
     17 C17        -0.7032   -0.7648   48.2034 C.ar    1  ZINC000151303733   -0.0900
     18 C18         0.1646   -1.7644   48.6115 C.ar    1  ZINC000151303733   -0.0800
     19 C19         1.5310   -1.5486   48.5956 C.ar    1  ZINC000151303733   -0.1200
     20 C20         2.0400   -0.3374   48.1737 C.ar    1  ZINC000151303733   -0.0400
     21 C21         1.1719    0.6746   47.7610 C.ar    1  ZINC000151303733   -0.1500
     22 C22         1.4063    2.0453   47.2676 C.2     1  ZINC000151303733    0.5600
     23 O23         2.5004    2.5565   47.1302 O.2     1  ZINC000151303733   -0.5100
     24 N24         0.2359    2.6485   46.9913 N.am    1  ZINC000151303733   -0.5700
     25 C25         0.0787    4.0131   46.4819 C.3     1  ZINC000151303733    0.0900
     26 C26         0.1233    4.2105   44.9653 C.3     1  ZINC000151303733   -0.1800
     27 C27        -1.2047    4.3373   45.7145 C.3     1  ZINC000151303733   -0.1900
     28 H28        -3.5726    5.3189   55.3587 H       1  ZINC000151303733    0.0700
     29 H29        -2.4930    6.7340   55.3476 H       1  ZINC000151303733    0.0700
     30 H30        -2.8892    5.9049   53.8232 H       1  ZINC000151303733    0.0600
     31 H31        -0.7982    5.6583   56.9321 H       1  ZINC000151303733    0.1700
     32 H32         0.3195    2.3494   53.8856 H       1  ZINC000151303733    0.2000
     33 H33        -2.8917    3.5425   53.0434 H       1  ZINC000151303733    0.4200
     34 H34        -2.9059    2.5659   50.7695 H       1  ZINC000151303733    0.1100
     35 H35        -2.5336    4.2099   50.1978 H       1  ZINC000151303733    0.1100
     36 H36        -0.2752    2.6533   49.6692 H       1  ZINC000151303733    0.4100
     37 H37        -1.7694   -0.9361   48.2173 H       1  ZINC000151303733    0.1300
     38 H38        -0.2266   -2.7147   48.9434 H       1  ZINC000151303733    0.1400
     39 H39         2.2024   -2.3318   48.9153 H       1  ZINC000151303733    0.1400
     40 H40         3.1075   -0.1732   48.1625 H       1  ZINC000151303733    0.1400
     41 H41         0.5048    4.7995   47.1049 H       1  ZINC000151303733    0.1400
     42 H42         0.5791    5.1270   44.5903 H       1  ZINC000151303733    0.1000
     43 H43         0.2698    3.3252   44.3466 H       1  ZINC000151303733    0.1300
     44 H44        -1.9320    3.5352   45.5886 H       1  ZINC000151303733    0.1000
     45 H45        -1.6226    5.3370   45.8323 H       1  ZINC000151303733    0.1000
@<TRIPOS>BOND
     1     1     2    1
     2     1    28    1
     3     1    29    1
     4     1    30    1
     5     2     6    1
     6     2     3    2
     7     3     4    1
     8     3    31    1
     9     4     5    1
    10     5     6    2
    11     5    32    1
    12     6     7    1
    13     7     8   am
    14     7    33    1
    15     8     9    2
    16     8    10    1
    17    10    11    1
    18    10    34    1
    19    10    35    1
    20    11    12   am
    21    11    36    1
    22    12    13    2
    23    12    14    1
    24    14    15    1
    25    14    24    1
    26    14    16    1
    27    16    21   ar
    28    16    17   ar
    29    17    18   ar
    30    17    37    1
    31    18    19   ar
    32    18    38    1
    33    19    20   ar
    34    19    39    1
    35    20    21   ar
    36    20    40    1
    37    21    22    1
    38    22    23    2
    39    22    24   am
    40    24    25    1
    41    25    27    1
    42    25    26    1
    43    25    41    1
    44    26    27    1
    45    26    42    1
    46    26    43    1
    47    27    44    1
    48    27    45    1
@<TRIPOS>SUBSTRUCTURE
     1 ZINC000151303733        1 TEMP              0 ****  ****    0 ROOT


##########                                Name:    ZINC000811540126
##########                DOCK_Rotatable_Bonds:                   7
##########                         Heavy_Atoms:                  21
##########                    Molecular_Weight:             397.212
##########                DOCK_Rotatable_Bonds:                   7
##########                       Formal_Charge:           0.0100001
##########                     HBond_Acceptors:                   4
##########                        HBond_Donors:                   3
##########                         Heavy_Atoms:                  21
##########                          Grid_Score:          -27.981939
##########                     Grid_vdw_energy:          -24.936571
##########                      Grid_es_energy:           -3.045368
##########           Internal_energy_repulsive:           11.495015

@<TRIPOS>MOLECULE
ZINC000811540126
 37 38 1 0 0
SMALL
USER_CHARGES


@<TRIPOS>ATOM
      1 C1        -10.0294   -0.7986   52.8265 C.3     1  ZINC000811540126   -0.1600
      2 C2         -9.5732    0.5151   53.4646 C.3     1  ZINC000811540126    0.1200
      3 H3        -10.4359    1.1634   53.6179 H       1  ZINC000811540126    0.1000
      4 N4         -8.9364    0.2363   54.7542 N.am    1  ZINC000811540126   -0.7200
      5 C5         -9.5553    0.5829   55.9002 C.2     1  ZINC000811540126    0.5700
      6 O6        -10.6415    1.1283   55.8636 O.2     1  ZINC000811540126   -0.5100
      7 C7         -8.9149    0.3006   57.1989 C.ar    1  ZINC000811540126   -0.1600
      8 C8         -9.5041   -0.5970   58.0922 C.ar    1  ZINC000811540126   -0.0400
      9 C9         -8.9004   -0.8564   59.3044 C.ar    1  ZINC000811540126   -0.1200
     10 I10        -9.7854   -2.2030   60.6432 I       1  ZINC000811540126   -0.0300
     11 C11        -7.7109   -0.2307   59.6408 C.ar    1  ZINC000811540126   -0.0400
     12 C12        -7.1183    0.6592   58.7667 C.ar    1  ZINC000811540126   -0.1500
     13 C13        -7.7087    0.9274   57.5411 C.ar    1  ZINC000811540126    0.1900
     14 O14        -7.1272    1.8010   56.6813 O.3     1  ZINC000811540126   -0.4700
     15 C15        -8.5709    1.2097   52.5405 C.3     1  ZINC000811540126    0.1400
     16 H16        -9.0636    1.4775   51.6058 H       1  ZINC000811540126    0.1300
     17 O17        -7.4817    0.3256   52.2686 O.3     1  ZINC000811540126   -0.5400
     18 C18        -8.0512    2.4562   53.2094 C.ar    1  ZINC000811540126   -0.1200
     19 C19        -6.6905    2.6372   53.3719 C.ar    1  ZINC000811540126   -0.1100
     20 C20        -6.2138    3.7805   53.9855 C.ar    1  ZINC000811540126   -0.1100
     21 C21        -7.0979    4.7429   54.4362 C.ar    1  ZINC000811540126   -0.1200
     22 C22        -8.4586    4.5622   54.2729 C.ar    1  ZINC000811540126   -0.1100
     23 C23        -8.9350    3.4209   53.6554 C.ar    1  ZINC000811540126   -0.1100
     24 H24       -10.7434   -1.2935   53.4848 H       1  ZINC000811540126    0.0600
     25 H25       -10.5031   -0.5912   51.8670 H       1  ZINC000811540126    0.0700
     26 H26        -9.1667   -1.4469   52.6732 H       1  ZINC000811540126    0.0700
     27 H27        -8.0695   -0.1977   54.7833 H       1  ZINC000811540126    0.3900
     28 H28       -10.4313   -1.0869   57.8339 H       1  ZINC000811540126    0.1300
     29 H29        -7.2446   -0.4398   60.5921 H       1  ZINC000811540126    0.1400
     30 H30        -6.1912    1.1432   59.0362 H       1  ZINC000811540126    0.1500
     31 H31        -6.1847    1.9441   56.8435 H       1  ZINC000811540126    0.4000
     32 H32        -7.0163    0.0201   53.0592 H       1  ZINC000811540126    0.3700
     33 H33        -5.9998    1.8853   53.0199 H       1  ZINC000811540126    0.1100
     34 H34        -5.1506    3.9217   54.1131 H       1  ZINC000811540126    0.1200
     35 H35        -6.7255    5.6358   54.9163 H       1  ZINC000811540126    0.1200
     36 H36        -9.1493    5.3140   54.6253 H       1  ZINC000811540126    0.1300
     37 H37        -9.9982    3.2798   53.5278 H       1  ZINC000811540126    0.1200
@<TRIPOS>BOND
     1     1     2    1
     2     1    24    1
     3     1    25    1
     4     1    26    1
     5     2     3    1
     6     2     4    1
     7     2    15    1
     8     4     5   am
     9     4    27    1
    10     5     6    2
    11     5     7    1
    12     7    13   ar
    13     7     8   ar
    14     8     9   ar
    15     8    28    1
    16     9    10    1
    17     9    11   ar
    18    11    12   ar
    19    11    29    1
    20    12    13   ar
    21    12    30    1
    22    13    14    1
    23    14    31    1
    24    15    16    1
    25    15    17    1
    26    15    18    1
    27    17    32    1
    28    18    23   ar
    29    18    19   ar
    30    19    20   ar
    31    19    33    1
    32    20    21   ar
    33    20    34    1
    34    21    22   ar
    35    21    35    1
    36    22    23   ar
    37    22    36    1
    38    23    37    1
@<TRIPOS>SUBSTRUCTURE
     1 ZINC000811540126        1 TEMP              0 ****  ****    0 ROOT


##########                                Name:    ZINC000171059239
##########                DOCK_Rotatable_Bonds:                   8
##########                         Heavy_Atoms:                  25
##########                    Molecular_Weight:              333.39
##########                DOCK_Rotatable_Bonds:                   8
##########                       Formal_Charge:         1.10269e-06
##########                     HBond_Acceptors:                   5
##########                        HBond_Donors:                   4
##########                         Heavy_Atoms:                  25
##########                          Grid_Score:          -27.978573
##########                     Grid_vdw_energy:          -24.798573
##########                      Grid_es_energy:           -3.180001
##########           Internal_energy_repulsive:            8.508254

@<TRIPOS>MOLECULE
ZINC000171059239
 44 46 1 0 0
SMALL
USER_CHARGES


@<TRIPOS>ATOM
      1 N1         -4.5893    4.5817   55.4811 N.am    1  ZINC000171059239   -0.8500
      2 C2         -3.6650    4.6508   54.5027 C.2     1  ZINC000171059239    0.5600
      3 O3         -3.9998    4.9353   53.3693 O.2     1  ZINC000171059239   -0.5400
      4 C4         -2.2438    4.3804   54.8079 C.ar    1  ZINC000171059239   -0.1400
      5 C5         -1.8588    4.0349   56.1040 C.ar    1  ZINC000171059239   -0.0900
      6 C6         -0.5309    3.7834   56.3820 C.ar    1  ZINC000171059239   -0.1200
      7 C7          0.4179    3.8737   55.3794 C.ar    1  ZINC000171059239   -0.0800
      8 C8          0.0429    4.2163   54.0921 C.ar    1  ZINC000171059239   -0.0900
      9 C9          1.0834    4.3126   53.0064 C.3     1  ZINC000171059239   -0.0900
     10 C10         1.2867    2.9357   52.3712 C.3     1  ZINC000171059239    0.1400
     11 N11         0.0725    2.5468   51.6494 N.am    1  ZINC000171059239   -0.7400
     12 C12        -0.0129    2.7442   50.3190 C.2     1  ZINC000171059239    0.7000
     13 O13         0.9182    3.2437   49.7175 O.2     1  ZINC000171059239   -0.5700
     14 N14        -1.1305    2.3879   49.6552 N.am    1  ZINC000171059239   -0.6800
     15 C15        -1.2191    2.5925   48.2769 C.ar    1  ZINC000171059239    0.1700
     16 C16        -1.1817    1.4952   47.3906 C.ar    1  ZINC000171059239   -0.0600
     17 C17        -1.0558    0.1800   47.8647 C.ar    1  ZINC000171059239   -0.1100
     18 C18        -1.0235   -0.8550   46.9806 C.ar    1  ZINC000171059239   -0.1100
     19 C19        -1.1133   -0.6288   45.6085 C.ar    1  ZINC000171059239   -0.1200
     20 C20        -1.2362    0.6329   45.1131 C.ar    1  ZINC000171059239   -0.1000
     21 C21        -1.2736    1.7263   45.9958 C.ar    1  ZINC000171059239   -0.0400
     22 C22        -1.4002    3.0423   45.5198 C.ar    1  ZINC000171059239   -0.1200
     23 C23        -1.4340    4.0825   46.3978 C.ar    1  ZINC000171059239   -0.0900
     24 C24        -1.3495    3.8675   47.7701 C.ar    1  ZINC000171059239   -0.1200
     25 C25        -1.2821    4.4641   53.7995 C.ar    1  ZINC000171059239   -0.0500
     26 H26        -5.5215    4.7602   55.2811 H       1  ZINC000171059239    0.4100
     27 H27        -4.3228    4.3496   56.3845 H       1  ZINC000171059239    0.4000
     28 H28        -2.5986    3.9649   56.8877 H       1  ZINC000171059239    0.1300
     29 H29        -0.2316    3.5160   57.3847 H       1  ZINC000171059239    0.1300
     30 H30         1.4560    3.6762   55.6023 H       1  ZINC000171059239    0.1300
     31 H31         0.7502    5.0183   52.2453 H       1  ZINC000171059239    0.0800
     32 H32         2.0245    4.6577   53.4346 H       1  ZINC000171059239    0.0800
     33 H33         2.1252    2.9764   51.6760 H       1  ZINC000171059239    0.0700
     34 H34         1.4963    2.2033   53.1508 H       1  ZINC000171059239    0.0700
     35 H35        -0.6699    2.1471   52.1291 H       1  ZINC000171059239    0.4000
     36 H36        -1.8733    1.9894   50.1351 H       1  ZINC000171059239    0.4100
     37 H37        -0.9846   -0.0100   48.9255 H       1  ZINC000171059239    0.1200
     38 H38        -0.9266   -1.8659   47.3481 H       1  ZINC000171059239    0.1200
     39 H39        -1.0845   -1.4670   44.9282 H       1  ZINC000171059239    0.1200
     40 H40        -1.3043    0.7933   44.0472 H       1  ZINC000171059239    0.1300
     41 H41        -1.4702    3.2286   44.4583 H       1  ZINC000171059239    0.1300
     42 H42        -1.5316    5.0907   46.0231 H       1  ZINC000171059239    0.1300
     43 H43        -1.3790    4.7098   48.4453 H       1  ZINC000171059239    0.1400
     44 H44        -1.5736    4.7311   52.7944 H       1  ZINC000171059239    0.1400
@<TRIPOS>BOND
     1     1     2   am
     2     1    26    1
     3     1    27    1
     4     2     3    2
     5     2     4    1
     6     4    25   ar
     7     4     5   ar
     8     5     6   ar
     9     5    28    1
    10     6     7   ar
    11     6    29    1
    12     7     8   ar
    13     7    30    1
    14     8     9    1
    15     8    25   ar
    16     9    10    1
    17     9    31    1
    18     9    32    1
    19    10    11    1
    20    10    33    1
    21    10    34    1
    22    11    12   am
    23    11    35    1
    24    12    13    2
    25    12    14   am
    26    14    15    1
    27    14    36    1
    28    15    24   ar
    29    15    16   ar
    30    16    21   ar
    31    16    17   ar
    32    17    18   ar
    33    17    37    1
    34    18    19   ar
    35    18    38    1
    36    19    20   ar
    37    19    39    1
    38    20    21   ar
    39    20    40    1
    40    21    22   ar
    41    22    23   ar
    42    22    41    1
    43    23    24   ar
    44    23    42    1
    45    24    43    1
    46    25    44    1
@<TRIPOS>SUBSTRUCTURE
     1 ZINC000171059239        1 TEMP              0 ****  ****    0 ROOT


##########                                Name:    ZINC000281257088
##########                DOCK_Rotatable_Bonds:                   8
##########                         Heavy_Atoms:                  27
##########                    Molecular_Weight:             395.541
##########                DOCK_Rotatable_Bonds:                   8
##########                       Formal_Charge:          -0.0200005
##########                     HBond_Acceptors:                   7
##########                        HBond_Donors:                   1
##########                         Heavy_Atoms:                  27
##########                          Grid_Score:          -27.889223
##########                     Grid_vdw_energy:          -27.464632
##########                      Grid_es_energy:           -0.424592
##########           Internal_energy_repulsive:           22.428295

@<TRIPOS>MOLECULE
ZINC000281257088
 57 58 1 0 0
SMALL
USER_CHARGES


@<TRIPOS>ATOM
      1 C1        -10.8261   -3.0646   60.0224 C.3     1  ZINC000281257088   -0.0700
      2 C2         -9.7954   -2.0216   60.3697 C.2     1  ZINC000281257088    0.1000
      3 N3         -9.2253   -1.8652   61.5369 N.2     1  ZINC000281257088   -0.3000
      4 N4         -8.3304   -0.7913   61.4465 N.pl3   1  ZINC000281257088   -0.3700
      5 C5         -7.4852   -0.2802   62.5286 C.3     1  ZINC000281257088    0.1500
      6 C6         -8.3249    0.5942   63.4620 C.3     1  ZINC000281257088   -0.6400
      7 S7         -8.1295    0.0161   65.1703 S.o2    1  ZINC000281257088    2.4300
      8 C8         -9.1932    1.1699   66.0803 C.3     1  ZINC000281257088   -0.6500
      9 O9         -8.6841   -1.2881   65.2732 O.2     1  ZINC000281257088   -0.9300
     10 O10        -6.7828    0.2309   65.5697 O.2     1  ZINC000281257088   -0.9300
     11 C11        -8.3843   -0.3107   60.1867 C.2     1  ZINC000281257088    0.0900
     12 C12        -7.5867    0.8463   59.6423 C.3     1  ZINC000281257088   -0.1000
     13 C13        -9.2786   -1.0573   59.4983 C.2     1  ZINC000281257088   -0.2300
     14 C14        -9.6573   -0.8761   58.0510 C.3     1  ZINC000281257088    0.1400
     15 N15       -10.6719    0.1803   57.9389 N.3     1  ZINC000281257088   -0.6700
     16 C16       -11.5224   -0.0296   56.7597 C.3     1  ZINC000281257088    0.1400
     17 H17       -12.0152   -0.9990   56.8350 H       1  ZINC000281257088    0.0500
     18 C18       -10.6735    0.0069   55.5150 C.ar    1  ZINC000281257088   -0.0800
     19 C19        -9.5855    0.8569   55.4459 C.ar    1  ZINC000281257088   -0.0600
     20 C20        -8.8062    0.8912   54.3050 C.ar    1  ZINC000281257088   -0.1600
     21 C21        -9.1154    0.0736   53.2313 C.ar    1  ZINC000281257088    0.1000
     22 F22        -8.3540    0.1060   52.1157 F       1  ZINC000281257088   -0.1400
     23 C23       -10.2050   -0.7776   53.3019 C.ar    1  ZINC000281257088   -0.1600
     24 C24       -10.9800   -0.8137   54.4455 C.ar    1  ZINC000281257088   -0.0900
     25 C25       -12.5784    1.0752   56.6893 C.3     1  ZINC000281257088   -0.0600
     26 C26       -11.8867    2.4374   56.6062 C.3     1  ZINC000281257088   -0.1400
     27 C27       -13.4501    0.8693   55.4488 C.3     1  ZINC000281257088   -0.1400
     28 C28       -13.4546    1.0239   57.9426 C.3     1  ZINC000281257088   -0.1500
     29 H29       -10.3260   -3.9647   59.6649 H       1  ZINC000281257088    0.0800
     30 H30       -11.4144   -3.3034   60.9085 H       1  ZINC000281257088    0.0700
     31 H31       -11.4837   -2.6802   59.2426 H       1  ZINC000281257088    0.0800
     32 H32        -7.0694   -1.1165   63.0905 H       1  ZINC000281257088    0.1100
     33 H33        -6.6741    0.3132   62.1067 H       1  ZINC000281257088    0.1100
     34 H34        -7.9911    1.6292   63.3882 H       1  ZINC000281257088    0.1400
     35 H35        -9.3742    0.5295   63.1743 H       1  ZINC000281257088    0.1400
     36 H36       -10.2166    1.0859   65.7147 H       1  ZINC000281257088    0.1300
     37 H37        -9.1659    0.9283   67.1428 H       1  ZINC000281257088    0.1300
     38 H38        -8.8362    2.1888   65.9300 H       1  ZINC000281257088    0.1300
     39 H39        -6.6460    0.4784   59.2326 H       1  ZINC000281257088    0.0800
     40 H40        -8.1561    1.3422   58.8561 H       1  ZINC000281257088    0.0900
     41 H41        -7.3811    1.5553   60.4443 H       1  ZINC000281257088    0.0700
     42 H42        -8.7745   -0.5943   57.4770 H       1  ZINC000281257088    0.0800
     43 H43       -10.0611   -1.8105   57.6613 H       1  ZINC000281257088    0.0300
     44 H44       -11.2271    0.2391   58.7793 H       1  ZINC000281257088    0.3400
     45 H45        -9.3445    1.4945   56.2836 H       1  ZINC000281257088    0.1400
     46 H46        -7.9566    1.5559   54.2509 H       1  ZINC000281257088    0.1300
     47 H47       -10.4473   -1.4156   52.4648 H       1  ZINC000281257088    0.1300
     48 H48       -11.8299   -1.4779   54.5010 H       1  ZINC000281257088    0.1300
     49 H49       -11.2625    2.4740   55.7134 H       1  ZINC000281257088    0.0600
     50 H50       -12.6390    3.2245   56.5560 H       1  ZINC000281257088    0.0500
     51 H51       -11.2657    2.5840   57.4899 H       1  ZINC000281257088    0.0600
     52 H52       -13.9429   -0.1011   55.5080 H       1  ZINC000281257088    0.0500
     53 H53       -14.2025    1.6565   55.3987 H       1  ZINC000281257088    0.0600
     54 H54       -12.8258    0.9060   54.5560 H       1  ZINC000281257088    0.0600
     55 H55       -12.8475    1.2476   58.8197 H       1  ZINC000281257088    0.0500
     56 H56       -14.2545    1.7593   57.8570 H       1  ZINC000281257088    0.0600
     57 H57       -13.8860    0.0279   58.0437 H       1  ZINC000281257088    0.0600
@<TRIPOS>BOND
     1     1     2    1
     2     1    29    1
     3     1    30    1
     4     1    31    1
     5     2    13    1
     6     2     3    2
     7     3     4    1
     8     4     5    1
     9     4    11    1
    10     5     6    1
    11     5    32    1
    12     5    33    1
    13     6     7    1
    14     6    34    1
    15     6    35    1
    16     7     8    1
    17     7     9    2
    18     7    10    2
    19     8    36    1
    20     8    37    1
    21     8    38    1
    22    11    12    1
    23    11    13    2
    24    12    39    1
    25    12    40    1
    26    12    41    1
    27    13    14    1
    28    14    15    1
    29    14    42    1
    30    14    43    1
    31    15    16    1
    32    15    44    1
    33    16    17    1
    34    16    18    1
    35    16    25    1
    36    18    24   ar
    37    18    19   ar
    38    19    20   ar
    39    19    45    1
    40    20    21   ar
    41    20    46    1
    42    21    22    1
    43    21    23   ar
    44    23    24   ar
    45    23    47    1
    46    24    48    1
    47    25    26    1
    48    25    27    1
    49    25    28    1
    50    26    49    1
    51    26    50    1
    52    26    51    1
    53    27    52    1
    54    27    53    1
    55    27    54    1
    56    28    55    1
    57    28    56    1
    58    28    57    1
@<TRIPOS>SUBSTRUCTURE
     1 ZINC000281257088        1 TEMP              0 ****  ****    0 ROOT


##########                                Name:    ZINC000643274279
##########                DOCK_Rotatable_Bonds:                   6
##########                         Heavy_Atoms:                  29
##########                    Molecular_Weight:             392.454
##########                DOCK_Rotatable_Bonds:                   6
##########                       Formal_Charge:         -0.00999939
##########                     HBond_Acceptors:                   6
##########                        HBond_Donors:                   2
##########                         Heavy_Atoms:                  29
##########                          Grid_Score:          -27.880171
##########                     Grid_vdw_energy:          -26.827179
##########                      Grid_es_energy:           -1.052992
##########           Internal_energy_repulsive:            8.917146

@<TRIPOS>MOLECULE
ZINC000643274279
 53 56 1 0 0
SMALL
USER_CHARGES


@<TRIPOS>ATOM
      1 O1        -11.6631   -1.3341   55.2464 O.2     1  ZINC000643274279   -0.4900
      2 C2        -12.4965   -0.4997   55.5337 C.2     1  ZINC000643274279    0.5100
      3 N3        -12.3190    0.2859   56.6143 N.am    1  ZINC000643274279   -0.6400
      4 C4        -11.1780    0.1359   57.4074 C.ar    1  ZINC000643274279    0.1300
      5 C5        -10.0635    0.9349   57.1777 C.ar    1  ZINC000643274279   -0.1000
      6 C6         -8.9247    0.7855   57.9504 C.ar    1  ZINC000643274279   -0.1000
      7 C7         -8.8940   -0.1606   58.9510 C.ar    1  ZINC000643274279   -0.0600
      8 C8         -7.6233   -0.3758   59.7543 C.3     1  ZINC000643274279   -0.0900
      9 C9         -7.8560    0.0727   61.1925 C.3     1  ZINC000643274279   -0.1200
     10 C10        -8.4346   -1.0505   62.0398 C.3     1  ZINC000643274279   -0.1100
     11 C11        -9.8696   -1.3869   61.7217 C.3     1  ZINC000643274279   -0.1600
     12 C12        -9.9774   -1.9284   60.3094 C.2     1  ZINC000643274279    0.4100
     13 O13       -10.0322   -3.1206   60.0955 O.2     1  ZINC000643274279   -0.4400
     14 C14       -10.0138   -0.9517   59.2069 C.ar    1  ZINC000643274279   -0.1300
     15 C15       -11.1619   -0.8059   58.4260 C.ar    1  ZINC000643274279   -0.1000
     16 C16       -13.7158   -0.3395   54.6861 C.2     1  ZINC000643274279    0.5200
     17 O17       -14.6688   -1.0729   54.8492 O.2     1  ZINC000643274279   -0.5000
     18 N18       -13.7576    0.6196   53.7402 N.am    1  ZINC000643274279   -0.5800
     19 C19       -14.8920    0.8872   52.8375 C.3     1  ZINC000643274279    0.0900
     20 C20       -14.7278    2.3710   52.4235 C.3     1  ZINC000643274279   -0.1400
     21 C21       -13.1855    2.4931   52.3073 C.3     1  ZINC000643274279   -0.1200
     22 C22       -12.6818    1.5763   53.4419 C.3     1  ZINC000643274279    0.1800
     23 H23       -12.4529    2.1718   54.3257 H       1  ZINC000643274279    0.0900
     24 C24       -11.4504    0.8332   52.9919 C.ar    1  ZINC000643274279   -0.1000
     25 C25       -11.5668   -0.2255   52.1104 C.ar    1  ZINC000643274279   -0.0900
     26 C26       -10.4396   -0.9084   51.6963 C.ar    1  ZINC000643274279   -0.1400
     27 C27        -9.1899   -0.5306   52.1654 C.ar    1  ZINC000643274279    0.1100
     28 O28        -8.0794   -1.2004   51.7592 O.3     1  ZINC000643274279   -0.5000
     29 C29        -9.0757    0.5324   53.0495 C.ar    1  ZINC000643274279   -0.1400
     30 C30       -10.2054    1.2151   53.4567 C.ar    1  ZINC000643274279   -0.0900
     31 H31       -12.9831    0.9553   56.8416 H       1  ZINC000643274279    0.4200
     32 H32       -10.0863    1.6757   56.3921 H       1  ZINC000643274279    0.1400
     33 H33        -8.0620    1.4092   57.7688 H       1  ZINC000643274279    0.1400
     34 H34        -7.3590   -1.4332   59.7411 H       1  ZINC000643274279    0.0800
     35 H35        -6.8132    0.2081   59.3174 H       1  ZINC000643274279    0.0800
     36 H36        -6.9073    0.3920   61.6240 H       1  ZINC000643274279    0.0800
     37 H37        -8.5486    0.9144   61.1956 H       1  ZINC000643274279    0.0700
     38 H38        -7.8281   -1.9441   61.8920 H       1  ZINC000643274279    0.0700
     39 H39        -8.3705   -0.7617   63.0889 H       1  ZINC000643274279    0.0800
     40 H40       -10.2294   -2.1378   62.4252 H       1  ZINC000643274279    0.0900
     41 H41       -10.4800   -0.4882   61.8118 H       1  ZINC000643274279    0.0900
     42 H42       -12.0284   -1.4235   58.6107 H       1  ZINC000643274279    0.1300
     43 H43       -14.8404    0.2409   51.9613 H       1  ZINC000643274279    0.0800
     44 H44       -15.8365    0.7420   53.3619 H       1  ZINC000643274279    0.1000
     45 H45       -15.2084    2.5645   51.4645 H       1  ZINC000643274279    0.0900
     46 H46       -15.1155    3.0368   53.1945 H       1  ZINC000643274279    0.0800
     47 H47       -12.8424    2.1355   51.3365 H       1  ZINC000643274279    0.0800
     48 H48       -12.8663    3.5217   52.4754 H       1  ZINC000643274279    0.0900
     49 H49       -12.5400   -0.5194   51.7454 H       1  ZINC000643274279    0.1200
     50 H50       -10.5311   -1.7358   51.0083 H       1  ZINC000643274279    0.1300
     51 H51        -7.2563   -0.8649   52.1402 H       1  ZINC000643274279    0.3900
     52 H52        -8.1038    0.8282   53.4164 H       1  ZINC000643274279    0.1300
     53 H53       -10.1171    2.0428   54.1447 H       1  ZINC000643274279    0.1300
@<TRIPOS>BOND
     1     1     2    2
     2     2     3   am
     3     2    16    1
     4     3     4    1
     5     3    31    1
     6     4    15   ar
     7     4     5   ar
     8     5     6   ar
     9     5    32    1
    10     6     7   ar
    11     6    33    1
    12     7    14   ar
    13     7     8    1
    14     8     9    1
    15     8    34    1
    16     8    35    1
    17     9    10    1
    18     9    36    1
    19     9    37    1
    20    10    11    1
    21    10    38    1
    22    10    39    1
    23    11    12    1
    24    11    40    1
    25    11    41    1
    26    12    13    2
    27    12    14    1
    28    14    15   ar
    29    15    42    1
    30    16    17    2
    31    16    18   am
    32    18    22    1
    33    18    19    1
    34    19    20    1
    35    19    43    1
    36    19    44    1
    37    20    21    1
    38    20    45    1
    39    20    46    1
    40    21    22    1
    41    21    47    1
    42    21    48    1
    43    22    23    1
    44    22    24    1
    45    24    30   ar
    46    24    25   ar
    47    25    26   ar
    48    25    49    1
    49    26    27   ar
    50    26    50    1
    51    27    28    1
    52    27    29   ar
    53    28    51    1
    54    29    30   ar
    55    29    52    1
    56    30    53    1
@<TRIPOS>SUBSTRUCTURE
     1 ZINC000643274279        1 TEMP              0 ****  ****    0 ROOT


##########                                Name:    ZINC000271662144
##########                DOCK_Rotatable_Bonds:                   8
##########                         Heavy_Atoms:                  26
##########                    Molecular_Weight:             390.402
##########                DOCK_Rotatable_Bonds:                   8
##########                       Formal_Charge:          0.00999944
##########                     HBond_Acceptors:                   9
##########                        HBond_Donors:                   3
##########                         Heavy_Atoms:                  26
##########                          Grid_Score:          -27.875990
##########                     Grid_vdw_energy:          -27.115412
##########                      Grid_es_energy:           -0.760579
##########           Internal_energy_repulsive:           11.875588

@<TRIPOS>MOLECULE
ZINC000271662144
 44 45 1 0 0
SMALL
USER_CHARGES


@<TRIPOS>ATOM
      1 C1         -1.4204    3.5280   45.5332 C.3     1  ZINC000271662144   -0.1400
      2 C2         -1.1117    2.0681   45.8712 C.3     1  ZINC000271662144    0.1200
      3 H3         -2.0446    1.5140   45.9741 H       1  ZINC000271662144    0.0600
      4 N4         -0.3630    2.0055   47.1335 N.3     1  ZINC000271662144   -0.6700
      5 C5         -1.2436    1.6371   48.2501 C.3     1  ZINC000271662144    0.1300
      6 H6         -2.2204    1.3478   47.8623 H       1  ZINC000271662144    0.1100
      7 C7         -0.6312    0.4633   49.0169 C.3     1  ZINC000271662144   -0.2000
      8 C8         -0.4565   -0.7274   48.0721 C.3     1  ZINC000271662144    0.4600
      9 F9         -1.5404   -0.7853   47.1894 F       1  ZINC000271662144   -0.1800
     10 F10         0.7292   -0.5761   47.3453 F       1  ZINC000271662144   -0.1800
     11 F11        -0.3988   -1.9098   48.8178 F       1  ZINC000271662144   -0.1700
     12 C12        -1.3999    2.8154   49.1764 C.ar    1  ZINC000271662144   -0.0900
     13 C13        -2.6255    3.0778   49.7597 C.ar    1  ZINC000271662144   -0.0600
     14 C14        -2.7700    4.1581   50.6094 C.ar    1  ZINC000271662144   -0.1600
     15 C15        -1.6864    4.9776   50.8767 C.ar    1  ZINC000271662144    0.1000
     16 F16        -1.8265    6.0338   51.7075 F       1  ZINC000271662144   -0.1400
     17 C17        -0.4593    4.7137   50.2923 C.ar    1  ZINC000271662144   -0.1500
     18 C18        -0.3161    3.6299   49.4467 C.ar    1  ZINC000271662144   -0.0700
     19 C19        -0.2857    1.4607   44.7667 C.ar    1  ZINC000271662144   -0.1100
     20 C20        -0.8399    0.5072   43.9338 C.ar    1  ZINC000271662144   -0.0400
     21 C21        -0.0821   -0.0501   42.9205 C.ar    1  ZINC000271662144   -0.1400
     22 C22         1.2295    0.3467   42.7402 C.ar    1  ZINC000271662144   -0.0200
     23 C23         1.7837    1.3012   43.5728 C.ar    1  ZINC000271662144   -0.6800
     24 S24         3.4560    1.8066   43.3434 S.o2    1  ZINC000271662144    2.7000
     25 N25         4.0020    2.3705   44.8016 N.am    1  ZINC000271662144   -1.2500
     26 O26         4.1974    0.6265   43.0664 O.2     1  ZINC000271662144   -0.9600
     27 O27         3.4205    2.9256   42.4683 O.2     1  ZINC000271662144   -0.9600
     28 C28         1.0248    1.8614   44.5831 C.ar    1  ZINC000271662144   -0.0100
     29 H29        -2.0178    3.9674   46.3321 H       1  ZINC000271662144    0.0600
     30 H30        -0.4874    4.0823   45.4303 H       1  ZINC000271662144    0.0700
     31 H31        -1.9759    3.5745   44.5965 H       1  ZINC000271662144    0.0600
     32 H32         0.4152    1.3674   47.0611 H       1  ZINC000271662144    0.3500
     33 H33         0.3401    0.7566   49.4152 H       1  ZINC000271662144    0.1100
     34 H34        -1.2906    0.1819   49.8379 H       1  ZINC000271662144    0.1200
     35 H35        -3.4705    2.4383   49.5511 H       1  ZINC000271662144    0.1300
     36 H36        -3.7277    4.3632   51.0643 H       1  ZINC000271662144    0.1400
     37 H37         0.3864    5.3524   50.4998 H       1  ZINC000271662144    0.1400
     38 H38         0.6412    3.4237   48.9911 H       1  ZINC000271662144    0.1300
     39 H39        -1.8647    0.1971   44.0746 H       1  ZINC000271662144    0.1400
     40 H40        -0.5149   -0.7957   42.2699 H       1  ZINC000271662144    0.1400
     41 H41         1.8217   -0.0892   41.9491 H       1  ZINC000271662144    0.1400
     42 H42         4.9108    2.6992   44.8850 H       1  ZINC000271662144    0.4200
     43 H43         3.4131    2.3720   45.5723 H       1  ZINC000271662144    0.4200
     44 H44         1.4576    2.6070   45.2336 H       1  ZINC000271662144    0.1400
@<TRIPOS>BOND
     1     1     2    1
     2     1    29    1
     3     1    30    1
     4     1    31    1
     5     2     3    1
     6     2     4    1
     7     2    19    1
     8     4     5    1
     9     4    32    1
    10     5     6    1
    11     5     7    1
    12     5    12    1
    13     7     8    1
    14     7    33    1
    15     7    34    1
    16     8     9    1
    17     8    10    1
    18     8    11    1
    19    12    18   ar
    20    12    13   ar
    21    13    14   ar
    22    13    35    1
    23    14    15   ar
    24    14    36    1
    25    15    16    1
    26    15    17   ar
    27    17    18   ar
    28    17    37    1
    29    18    38    1
    30    19    28   ar
    31    19    20   ar
    32    20    21   ar
    33    20    39    1
    34    21    22   ar
    35    21    40    1
    36    22    23   ar
    37    22    41    1
    38    23    24    1
    39    23    28   ar
    40    24    25   am
    41    24    26    2
    42    24    27    2
    43    25    42    1
    44    25    43    1
    45    28    44    1
@<TRIPOS>SUBSTRUCTURE
     1 ZINC000271662144        1 TEMP              0 ****  ****    0 ROOT


##########                                Name:    ZINC000504860563
##########                DOCK_Rotatable_Bonds:                   6
##########                         Heavy_Atoms:                  25
##########                    Molecular_Weight:             370.786
##########                DOCK_Rotatable_Bonds:                   6
##########                       Formal_Charge:                0.01
##########                     HBond_Acceptors:                   9
##########                        HBond_Donors:                   0
##########                         Heavy_Atoms:                  25
##########                          Grid_Score:          -27.866119
##########                     Grid_vdw_energy:          -26.972683
##########                      Grid_es_energy:           -0.893436
##########           Internal_energy_repulsive:           12.999392

@<TRIPOS>MOLECULE
ZINC000504860563
 42 44 1 0 0
SMALL
USER_CHARGES


@<TRIPOS>ATOM
      1 O1         -0.6809    5.3148   50.5180 O.2     1  ZINC000504860563   -0.5100
      2 C2         -0.3718    4.1396   50.5459 C.2     1  ZINC000504860563    0.5700
      3 C3          0.5900    3.6521   51.5572 C.ar    1  ZINC000504860563    0.0500
      4 N4          1.8870    3.6188   51.2722 N.ar    1  ZINC000504860563   -0.4100
      5 C5          2.7745    3.1931   52.1427 C.ar    1  ZINC000504860563    0.0600
      6 C6          2.3900    2.7585   53.4028 C.ar    1  ZINC000504860563   -0.1000
      7 C7          1.0504    2.7736   53.7480 C.ar    1  ZINC000504860563   -0.1700
      8 C8          0.1288    3.2342   52.8104 C.ar    1  ZINC000504860563    0.1400
      9 O9         -1.1951    3.2678   53.1039 O.3     1  ZINC000504860563   -0.2600
     10 C10        -1.5755    2.8920   54.4291 C.3     1  ZINC000504860563   -0.0100
     11 C11        -3.0865    3.0660   54.5948 C.3     1  ZINC000504860563    0.2800
     12 F12        -3.4589    2.6969   55.8918 F       1  ZINC000504860563   -0.1900
     13 F13        -3.4287    4.4046   54.3744 F       1  ZINC000504860563   -0.1900
     14 N14        -0.9101    3.2799   49.6583 N.am    1  ZINC000504860563   -0.6000
     15 C15        -1.8628    3.7504   48.6436 C.3     1  ZINC000504860563    0.0800
     16 C16        -1.3677    3.3122   47.2617 C.3     1  ZINC000504860563   -0.1500
     17 C17        -1.1449    1.7981   47.2606 C.3     1  ZINC000504860563    0.1600
     18 N18        -0.7030    1.3708   45.9309 N.pl3   1  ZINC000504860563   -0.3600
     19 C19         0.5408    1.5108   45.4239 C.2     1  ZINC000504860563    0.0700
     20 C20         0.5377    0.9904   44.1743 C.2     1  ZINC000504860563   -0.1900
     21 Cl21        1.8938    0.9226   43.0925 Cl      1  ZINC000504860563   -0.0400
     22 C22        -0.7518    0.5163   43.9088 C.2     1  ZINC000504860563    0.0600
     23 N23        -1.4945    0.7392   44.9628 N.2     1  ZINC000504860563   -0.2800
     24 C24        -0.0751    1.4374   48.2938 C.3     1  ZINC000504860563   -0.1400
     25 C25        -0.5509    1.8555   49.6835 C.3     1  ZINC000504860563    0.1200
     26 H26         3.8201    3.1811   51.8728 H       1  ZINC000504860563    0.1700
     27 H27         3.1302    2.4108   54.1082 H       1  ZINC000504860563    0.1500
     28 H28         0.7272    2.4401   54.7230 H       1  ZINC000504860563    0.1500
     29 H29        -1.3088    1.8493   54.6018 H       1  ZINC000504860563    0.1000
     30 H30        -1.0558    3.5240   55.1494 H       1  ZINC000504860563    0.1000
     31 H31        -3.6061    2.4348   53.8740 H       1  ZINC000504860563    0.1300
     32 H32        -2.8442    3.3164   48.8347 H       1  ZINC000504860563    0.0700
     33 H33        -1.9284    4.8378   48.6803 H       1  ZINC000504860563    0.1600
     34 H34        -2.1129    3.5708   46.5094 H       1  ZINC000504860563    0.0900
     35 H35        -0.4294    3.8181   47.0341 H       1  ZINC000504860563    0.0700
     36 H36        -2.0777    1.2937   47.5128 H       1  ZINC000504860563    0.1100
     37 H37         1.3862    1.9583   45.9254 H       1  ZINC000504860563    0.1800
     38 H38        -1.0771    0.0446   42.9933 H       1  ZINC000504860563    0.1900
     39 H39         0.0998    0.3617   48.2760 H       1  ZINC000504860563    0.0900
     40 H40         0.8510    1.9610   48.0565 H       1  ZINC000504860563    0.0800
     41 H41         0.2470    1.6912   50.4076 H       1  ZINC000504860563    0.1000
     42 H42        -1.4263    1.2687   49.9619 H       1  ZINC000504860563    0.0800
@<TRIPOS>BOND
     1     1     2    2
     2     2     3    1
     3     2    14   am
     4     3     8   ar
     5     3     4   ar
     6     4     5   ar
     7     5     6   ar
     8     5    26    1
     9     6     7   ar
    10     6    27    1
    11     7     8   ar
    12     7    28    1
    13     8     9    1
    14     9    10    1
    15    10    11    1
    16    10    29    1
    17    10    30    1
    18    11    12    1
    19    11    13    1
    20    11    31    1
    21    14    25    1
    22    14    15    1
    23    15    16    1
    24    15    32    1
    25    15    33    1
    26    16    17    1
    27    16    34    1
    28    16    35    1
    29    17    18    1
    30    17    24    1
    31    17    36    1
    32    18    23    1
    33    18    19    1
    34    19    20    2
    35    19    37    1
    36    20    21    1
    37    20    22    1
    38    22    23    2
    39    22    38    1
    40    24    25    1
    41    24    39    1
    42    24    40    1
    43    25    41    1
    44    25    42    1
@<TRIPOS>SUBSTRUCTURE
     1 ZINC000504860563        1 TEMP              0 ****  ****    0 ROOT


##########                                Name:    ZINC000269287897
##########                DOCK_Rotatable_Bonds:                   8
##########                         Heavy_Atoms:                  23
##########                    Molecular_Weight:             385.301
##########                DOCK_Rotatable_Bonds:                   8
##########                       Formal_Charge:           0.0300002
##########                     HBond_Acceptors:                   5
##########                        HBond_Donors:                   1
##########                         Heavy_Atoms:                  23
##########                          Grid_Score:          -27.842512
##########                     Grid_vdw_energy:          -26.636290
##########                      Grid_es_energy:           -1.206222
##########           Internal_energy_repulsive:           11.404365

@<TRIPOS>MOLECULE
ZINC000269287897
 48 49 1 0 0
SMALL
USER_CHARGES


@<TRIPOS>ATOM
      1 C1          2.0022    1.1084   56.0718 C.3     1  ZINC000269287897    0.0300
      2 O2          1.9958    1.2877   57.4895 O.3     1  ZINC000269287897   -0.3800
      3 C3          1.6607    2.6129   57.9062 C.3     1  ZINC000269287897    0.0600
      4 C4          0.1388    2.7596   57.9645 C.3     1  ZINC000269287897    0.0600
      5 O5         -0.3816    2.8574   56.6373 O.3     1  ZINC000269287897   -0.3800
      6 C6         -1.8084    2.8191   56.5681 C.3     1  ZINC000269287897    0.0700
      7 C7         -2.2427    2.5871   55.1195 C.3     1  ZINC000269287897   -0.1000
      8 H8         -2.2697    1.5224   54.8877 H       1  ZINC000269287897    0.1000
      9 C9         -3.6156    3.2528   54.8372 C.3     1  ZINC000269287897   -0.1200
     10 C10        -3.5625    3.5239   53.3188 C.3     1  ZINC000269287897    0.1000
     11 N11        -2.1448    3.5581   52.9309 N.am    1  ZINC000269287897   -0.6300
     12 C12        -1.6766    3.7511   51.6819 C.2     1  ZINC000269287897    0.7300
     13 O13        -0.4782    3.7590   51.4762 O.2     1  ZINC000269287897   -0.5600
     14 N14        -2.5368    3.9352   50.6608 N.am    1  ZINC000269287897   -0.6900
     15 C15        -2.0505    4.1356   49.3635 C.ar    1  ZINC000269287897    0.1800
     16 C16        -1.9435    3.0643   48.4874 C.ar    1  ZINC000269287897   -0.0600
     17 C17        -2.3509    1.6831   48.9319 C.3     1  ZINC000269287897   -0.1000
     18 C18        -1.4638    3.2653   47.2075 C.ar    1  ZINC000269287897   -0.0900
     19 C19        -1.0902    4.5320   46.7984 C.ar    1  ZINC000269287897   -0.0800
     20 C20        -0.5673    4.7472   45.4016 C.3     1  ZINC000269287897   -0.1100
     21 C21        -1.1957    5.6021   47.6682 C.ar    1  ZINC000269287897   -0.0900
     22 C22        -1.6792    5.4088   48.9480 C.ar    1  ZINC000269287897   -0.1000
     23 Br23       -1.8238    6.8724   50.1366 Br      1  ZINC000269287897   -0.0500
     24 C24        -1.3194    3.3467   54.1346 C.3     1  ZINC000269287897    0.1400
     25 H25         1.0124    1.3303   55.6730 H       1  ZINC000269287897    0.0400
     26 H26         2.7336    1.7810   55.6238 H       1  ZINC000269287897    0.0400
     27 H27         2.2656    0.0770   55.8373 H       1  ZINC000269287897    0.0900
     28 H28         2.0818    2.8006   58.8938 H       1  ZINC000269287897    0.0600
     29 H29         2.0679    3.3313   57.1949 H       1  ZINC000269287897    0.0600
     30 H30        -0.2914    1.8894   58.4603 H       1  ZINC000269287897    0.0700
     31 H31        -0.1183    3.6597   58.5228 H       1  ZINC000269287897    0.0600
     32 H32        -2.1809    2.0077   57.1934 H       1  ZINC000269287897    0.0600
     33 H33        -2.2149    3.7666   56.9220 H       1  ZINC000269287897    0.0500
     34 H34        -4.4314    2.5715   55.0789 H       1  ZINC000269287897    0.0900
     35 H35        -3.7134    4.1856   55.3924 H       1  ZINC000269287897    0.0800
     36 H36        -4.0747    2.7258   52.7815 H       1  ZINC000269287897    0.0700
     37 H37        -4.0307    4.4829   53.0970 H       1  ZINC000269287897    0.0700
     38 H38        -3.4928    3.9289   50.8249 H       1  ZINC000269287897    0.4100
     39 H39        -3.3622    1.4728   48.5836 H       1  ZINC000269287897    0.0900
     40 H40        -1.6625    0.9490   48.5134 H       1  ZINC000269287897    0.0600
     41 H41        -2.3228    1.6286   50.0201 H       1  ZINC000269287897    0.0600
     42 H42        -1.3802    2.4318   46.5258 H       1  ZINC000269287897    0.1300
     43 H43        -1.3981    4.9744   44.7336 H       1  ZINC000269287897    0.0700
     44 H44         0.1370    5.5791   45.4014 H       1  ZINC000269287897    0.0700
     45 H45        -0.0625    3.8438   45.0594 H       1  ZINC000269287897    0.0700
     46 H46        -0.9029    6.5904   47.3457 H       1  ZINC000269287897    0.1400
     47 H47        -1.0172    4.3036   54.5602 H       1  ZINC000269287897    0.0700
     48 H48        -0.4435    2.7446   53.8930 H       1  ZINC000269287897    0.0900
@<TRIPOS>BOND
     1     1     2    1
     2     1    25    1
     3     1    26    1
     4     1    27    1
     5     2     3    1
     6     3     4    1
     7     3    28    1
     8     3    29    1
     9     4     5    1
    10     4    30    1
    11     4    31    1
    12     5     6    1
    13     6     7    1
    14     6    32    1
    15     6    33    1
    16     7     8    1
    17     7    24    1
    18     7     9    1
    19     9    10    1
    20     9    34    1
    21     9    35    1
    22    10    11    1
    23    10    36    1
    24    10    37    1
    25    11    12   am
    26    11    24    1
    27    12    13    2
    28    12    14   am
    29    14    15    1
    30    14    38    1
    31    15    22   ar
    32    15    16   ar
    33    16    17    1
    34    16    18   ar
    35    17    39    1
    36    17    40    1
    37    17    41    1
    38    18    19   ar
    39    18    42    1
    40    19    20    1
    41    19    21   ar
    42    20    43    1
    43    20    44    1
    44    20    45    1
    45    21    22   ar
    46    21    46    1
    47    22    23    1
    48    24    47    1
    49    24    48    1
@<TRIPOS>SUBSTRUCTURE
     1 ZINC000269287897        1 TEMP              0 ****  ****    0 ROOT


##########                                Name:    ZINC000543429378
##########                DOCK_Rotatable_Bonds:                   6
##########                         Heavy_Atoms:                  29
##########                    Molecular_Weight:             406.408
##########                DOCK_Rotatable_Bonds:                   6
##########                       Formal_Charge:           0.0100003
##########                     HBond_Acceptors:                   9
##########                        HBond_Donors:                   1
##########                         Heavy_Atoms:                  29
##########                          Grid_Score:          -27.842129
##########                     Grid_vdw_energy:          -26.575565
##########                      Grid_es_energy:           -1.266564
##########           Internal_energy_repulsive:           38.418507

@<TRIPOS>MOLECULE
ZINC000543429378
 50 53 1 0 0
SMALL
USER_CHARGES


@<TRIPOS>ATOM
      1 O1        -10.3232   -0.1148   60.7014 O.2     1  ZINC000543429378   -0.5100
      2 C2         -9.3477   -0.8330   60.7615 C.2     1  ZINC000543429378    0.5200
      3 N3         -9.1881   -1.8292   59.8678 N.am    1  ZINC000543429378   -0.6600
      4 C4        -10.1506   -2.0383   58.8740 C.ar    1  ZINC000543429378    0.1900
      5 C5        -10.2996   -1.1170   57.8455 C.ar    1  ZINC000543429378   -0.1600
      6 C6        -11.2498   -1.3238   56.8639 C.ar    1  ZINC000543429378   -0.0600
      7 C7        -12.0540   -2.4467   56.9029 C.ar    1  ZINC000543429378   -0.2100
      8 C8        -11.9094   -3.3709   57.9284 C.ar    1  ZINC000543429378    0.1300
      9 O9        -12.7012   -4.4748   57.9655 O.3     1  ZINC000543429378   -0.3100
     10 C10       -13.9270   -4.4188   57.2331 C.3     1  ZINC000543429378    0.6000
     11 F11       -14.5434   -3.1816   57.4494 F       1  ZINC000543429378   -0.1600
     12 F12       -13.6623   -4.5757   55.8683 F       1  ZINC000543429378   -0.1300
     13 F13       -14.7752   -5.4441   57.6645 F       1  ZINC000543429378   -0.1600
     14 C14       -10.9537   -3.1697   58.9117 C.ar    1  ZINC000543429378   -0.1300
     15 C15        -8.3111   -0.6078   61.8319 C.3     1  ZINC000543429378    0.0700
     16 H16        -7.6490   -1.4713   61.8952 H       1  ZINC000543429378    0.1200
     17 C17        -9.0061   -0.3720   63.2009 C.3     1  ZINC000543429378   -0.1200
     18 C18        -8.1133    0.7111   63.8258 C.3     1  ZINC000543429378   -0.1000
     19 H19        -7.1971    0.2794   64.2285 H       1  ZINC000543429378    0.0900
     20 C20        -8.7941    1.5991   64.8533 C.3     1  ZINC000543429378   -0.1100
     21 C21        -7.7844    2.6843   65.2597 C.3     1  ZINC000543429378   -0.1200
     22 C22        -7.3194    3.4953   64.0537 C.3     1  ZINC000543429378   -0.1100
     23 C23        -6.7529    2.5853   62.9511 C.3     1  ZINC000543429378   -0.0900
     24 C24        -7.8217    1.5854   62.5759 C.3     1  ZINC000543429378    0.0700
     25 H25        -8.7359    2.1179   62.3134 H       1  ZINC000543429378    0.0900
     26 N26        -7.5223    0.6138   61.5241 N.3     1  ZINC000543429378   -0.4300
     27 C27        -7.8628    1.1109   60.2780 C.ar    1  ZINC000543429378    0.5000
     28 N28        -8.7807    2.0623   60.1901 N.ar    1  ZINC000543429378   -0.5300
     29 C29        -9.1288    2.5595   59.0147 C.ar    1  ZINC000543429378    0.1800
     30 C30        -8.5208    2.0731   57.8680 C.ar    1  ZINC000543429378   -0.2500
     31 C31        -7.5648    1.0778   57.9962 C.ar    1  ZINC000543429378    0.1800
     32 N32        -7.2592    0.6279   59.2020 N.ar    1  ZINC000543429378   -0.5300
     33 H33        -8.4060   -2.4010   59.9136 H       1  ZINC000543429378    0.4200
     34 H34        -9.6728   -0.2381   57.8132 H       1  ZINC000543429378    0.1400
     35 H35       -11.3643   -0.6062   56.0650 H       1  ZINC000543429378    0.1400
     36 H36       -12.7962   -2.6053   56.1346 H       1  ZINC000543429378    0.1400
     37 H37       -10.8397   -3.8878   59.7103 H       1  ZINC000543429378    0.1500
     38 H38       -10.0239   -0.0067   63.0636 H       1  ZINC000543429378    0.0800
     39 H39        -8.9975   -1.2800   63.8040 H       1  ZINC000543429378    0.0900
     40 H40        -9.6792    2.0612   64.4159 H       1  ZINC000543429378    0.0700
     41 H41        -9.0753    1.0089   65.7255 H       1  ZINC000543429378    0.0700
     42 H42        -8.2525    3.3546   65.9806 H       1  ZINC000543429378    0.0600
     43 H43        -6.9200    2.2104   65.7248 H       1  ZINC000543429378    0.0600
     44 H44        -8.1643    4.0563   63.6541 H       1  ZINC000543429378    0.0600
     45 H45        -6.5463    4.1949   64.3711 H       1  ZINC000543429378    0.0700
     46 H46        -6.4819    3.1825   62.0805 H       1  ZINC000543429378    0.0700
     47 H47        -5.8776    2.0528   63.3234 H       1  ZINC000543429378    0.0700
     48 H48        -9.8779    3.3346   58.9494 H       1  ZINC000543429378    0.1600
     49 H49        -8.7865    2.4610   56.8958 H       1  ZINC000543429378    0.1400
     50 H50        -7.0725    0.6769   57.1224 H       1  ZINC000543429378    0.1600
@<TRIPOS>BOND
     1     1     2    2
     2     2     3   am
     3     2    15    1
     4     3     4    1
     5     3    33    1
     6     4    14   ar
     7     4     5   ar
     8     5     6   ar
     9     5    34    1
    10     6     7   ar
    11     6    35    1
    12     7     8   ar
    13     7    36    1
    14     8     9    1
    15     8    14   ar
    16     9    10    1
    17    10    11    1
    18    10    12    1
    19    10    13    1
    20    14    37    1
    21    15    16    1
    22    15    26    1
    23    15    17    1
    24    17    18    1
    25    17    38    1
    26    17    39    1
    27    18    19    1
    28    18    24    1
    29    18    20    1
    30    20    21    1
    31    20    40    1
    32    20    41    1
    33    21    22    1
    34    21    42    1
    35    21    43    1
    36    22    23    1
    37    22    44    1
    38    22    45    1
    39    23    24    1
    40    23    46    1
    41    23    47    1
    42    24    25    1
    43    24    26    1
    44    26    27    1
    45    27    32   ar
    46    27    28   ar
    47    28    29   ar
    48    29    30   ar
    49    29    48    1
    50    30    31   ar
    51    30    49    1
    52    31    32   ar
    53    31    50    1
@<TRIPOS>SUBSTRUCTURE
     1 ZINC000543429378        1 TEMP              0 ****  ****    0 ROOT


##########                                Name:    ZINC000899027326
##########                DOCK_Rotatable_Bonds:                   5
##########                         Heavy_Atoms:                  22
##########                    Molecular_Weight:             346.169
##########                DOCK_Rotatable_Bonds:                   5
##########                       Formal_Charge:           0.0300005
##########                     HBond_Acceptors:                   9
##########                        HBond_Donors:                   1
##########                         Heavy_Atoms:                  22
##########                          Grid_Score:          -27.822752
##########                     Grid_vdw_energy:          -28.781281
##########                      Grid_es_energy:            0.958528
##########           Internal_energy_repulsive:           15.375752

@<TRIPOS>MOLECULE
ZINC000899027326
 35 36 1 0 0
SMALL
USER_CHARGES


@<TRIPOS>ATOM
      1 C1         -1.0334    1.4666   45.1119 C.3     1  ZINC000899027326   -0.1500
      2 C2         -0.5960    1.7394   46.5525 C.3     1  ZINC000899027326    0.1100
      3 H3          0.4901    1.8057   46.6162 H       1  ZINC000899027326    0.1400
      4 C4         -1.2394    3.0090   47.0738 C.2     1  ZINC000899027326    0.5300
      5 O5         -1.1056    4.1312   46.6351 O.2     1  ZINC000899027326   -0.4500
      6 N6         -1.9917    2.6307   48.1260 N.am    1  ZINC000899027326   -0.3700
      7 N7         -2.7609    3.5094   48.9000 N.am    1  ZINC000899027326   -0.5000
      8 C8         -2.1751    4.2491   49.8623 C.2     1  ZINC000899027326    0.5200
      9 O9         -0.9818    4.1551   50.0573 O.2     1  ZINC000899027326   -0.4800
     10 C10        -3.0028    5.1930   50.6959 C.3     1  ZINC000899027326    0.0500
     11 O11        -3.8484    4.4411   51.5688 O.3     1  ZINC000899027326   -0.2700
     12 C12        -3.2849    3.9551   52.7064 C.ar    1  ZINC000899027326    0.1400
     13 C13        -1.9359    4.1582   52.9546 C.ar    1  ZINC000899027326   -0.1900
     14 C14        -1.3647    3.6634   54.1117 C.ar    1  ZINC000899027326   -0.0600
     15 C15        -2.1375    2.9657   55.0225 C.ar    1  ZINC000899027326   -0.0600
     16 Cl16       -1.4171    2.3459   56.4753 Cl      1  ZINC000899027326   -0.0500
     17 C17        -3.4841    2.7615   54.7775 C.ar    1  ZINC000899027326   -0.0600
     18 C18        -4.0606    3.2596   53.6243 C.ar    1  ZINC000899027326   -0.0500
     19 Cl19       -5.7499    3.0036   53.3168 Cl      1  ZINC000899027326   -0.0300
     20 C20        -1.9138    1.3122   48.3397 C.2     1  ZINC000899027326    0.7000
     21 O21        -2.5045    0.7365   49.2323 O.2     1  ZINC000899027326   -0.5200
     22 N22        -1.1052    0.6930   47.4557 N.am    1  ZINC000899027326   -0.6200
     23 C23        -0.7987   -0.7387   47.4035 C.3     1  ZINC000899027326    0.1200
     24 H24        -2.1212    1.4160   45.0658 H       1  ZINC000899027326    0.0700
     25 H25        -0.6794    2.2703   44.4664 H       1  ZINC000899027326    0.0900
     26 H26        -0.6111    0.5191   44.7772 H       1  ZINC000899027326    0.0900
     27 H27        -3.7151    3.5855   48.7431 H       1  ZINC000899027326    0.4300
     28 H28        -2.3439    5.8289   51.2871 H       1  ZINC000899027326    0.1100
     29 H29        -3.6157    5.8133   50.0419 H       1  ZINC000899027326    0.1100
     30 H30        -1.3318    4.7025   52.2439 H       1  ZINC000899027326    0.1500
     31 H31        -0.3140    3.8212   54.3047 H       1  ZINC000899027326    0.1500
     32 H32        -4.0859    2.2166   55.4898 H       1  ZINC000899027326    0.1500
     33 H33        -1.3305   -1.2535   48.2036 H       1  ZINC000899027326    0.0900
     34 H34        -1.1119   -1.1424   46.4408 H       1  ZINC000899027326    0.0700
     35 H35         0.2742   -0.8853   47.5273 H       1  ZINC000899027326    0.0700
@<TRIPOS>BOND
     1     1     2    1
     2     1    24    1
     3     1    25    1
     4     1    26    1
     5     2     3    1
     6     2    22    1
     7     2     4    1
     8     4     5    2
     9     4     6   am
    10     6     7    1
    11     6    20   am
    12     7     8   am
    13     7    27    1
    14     8     9    2
    15     8    10    1
    16    10    11    1
    17    10    28    1
    18    10    29    1
    19    11    12    1
    20    12    18   ar
    21    12    13   ar
    22    13    14   ar
    23    13    30    1
    24    14    15   ar
    25    14    31    1
    26    15    16    1
    27    15    17   ar
    28    17    18   ar
    29    17    32    1
    30    18    19    1
    31    20    21    2
    32    20    22   am
    33    22    23    1
    34    23    33    1
    35    23    34    1
    36    23    35    1
@<TRIPOS>SUBSTRUCTURE
     1 ZINC000899027326        1 TEMP              0 ****  ****    0 ROOT


##########                                Name:    ZINC000192150625
##########                DOCK_Rotatable_Bonds:                   5
##########                         Heavy_Atoms:                  28
##########                    Molecular_Weight:             377.443
##########                DOCK_Rotatable_Bonds:                   5
##########                       Formal_Charge:           0.0199997
##########                     HBond_Acceptors:                   6
##########                        HBond_Donors:                   1
##########                         Heavy_Atoms:                  28
##########                          Grid_Score:          -27.809706
##########                     Grid_vdw_energy:          -26.052395
##########                      Grid_es_energy:           -1.757311
##########           Internal_energy_repulsive:           10.036389

@<TRIPOS>MOLECULE
ZINC000192150625
 51 54 1 0 0
SMALL
USER_CHARGES


@<TRIPOS>ATOM
      1 C1          2.1030    3.4516   54.9380 C.3     1  ZINC000192150625   -0.0800
      2 C2          0.6214    3.3349   54.6877 C.2     1  ZINC000192150625    0.0400
      3 C3         -0.2831    2.9574   55.6012 C.2     1  ZINC000192150625   -0.1800
      4 C4         -0.0173    2.5787   57.0354 C.3     1  ZINC000192150625   -0.0800
      5 C5         -1.5854    2.9870   54.9242 C.ar    1  ZINC000192150625   -0.1000
      6 C6         -2.8927    2.7078   55.3173 C.ar    1  ZINC000192150625   -0.0700
      7 C7         -3.9234    2.8400   54.4028 C.ar    1  ZINC000192150625    0.1200
      8 N8         -5.2390    2.5622   54.7885 N.am    1  ZINC000192150625   -0.6400
      9 C9         -6.0782    3.5709   55.0966 C.2     1  ZINC000192150625    0.5100
     10 O10        -5.6923    4.7203   55.0393 O.2     1  ZINC000192150625   -0.4900
     11 C11        -7.4828    3.2743   55.5084 C.2     1  ZINC000192150625    0.5100
     12 O12        -8.3404    3.1103   54.6655 O.2     1  ZINC000192150625   -0.5200
     13 N13        -7.7979    3.1888   56.8160 N.am    1  ZINC000192150625   -0.5800
     14 C14        -9.1739    2.8917   57.2365 C.3     1  ZINC000192150625    0.0500
     15 C15        -9.1508    1.6894   58.1856 C.3     1  ZINC000192150625   -0.1200
     16 C16        -8.1883    1.9748   59.3407 C.3     1  ZINC000192150625   -0.0500
     17 C17        -8.1887    0.8079   60.2944 C.ar    1  ZINC000192150625   -0.0300
     18 C18        -8.3506    1.0052   61.6571 C.ar    1  ZINC000192150625   -0.1700
     19 C19        -8.3457   -0.0890   62.5014 C.ar    1  ZINC000192150625    0.1000
     20 N20        -8.1889   -1.3084   62.0242 N.ar    1  ZINC000192150625   -0.4900
     21 C21        -8.0322   -1.5334   60.7343 C.ar    1  ZINC000192150625    0.1000
     22 C22        -8.0327   -0.4889   59.8293 C.ar    1  ZINC000192150625   -0.1700
     23 C23        -6.7757    2.1829   58.7902 C.3     1  ZINC000192150625   -0.1200
     24 C24        -6.7706    3.3848   57.8479 C.3     1  ZINC000192150625    0.1100
     25 C25        -3.6527    3.2496   53.0987 C.ar    1  ZINC000192150625   -0.1100
     26 C26        -2.3625    3.5272   52.7041 C.ar    1  ZINC000192150625   -0.0800
     27 C27        -1.3156    3.4000   53.6084 C.ar    1  ZINC000192150625    0.0500
     28 O28         0.0156    3.6002   53.5174 O.3     1  ZINC000192150625   -0.1900
     29 H29         2.6005    3.7821   54.0262 H       1  ZINC000192150625    0.0800
     30 H30         2.2813    4.1762   55.7323 H       1  ZINC000192150625    0.0900
     31 H31         2.4987    2.4807   55.2362 H       1  ZINC000192150625    0.0900
     32 H32        -0.0773    3.4679   57.6630 H       1  ZINC000192150625    0.0700
     33 H33        -0.7605    1.8518   57.3631 H       1  ZINC000192150625    0.0700
     34 H34         0.9784    2.1426   57.1174 H       1  ZINC000192150625    0.0700
     35 H35        -3.1002    2.3901   56.3285 H       1  ZINC000192150625    0.1400
     36 H36        -5.5474    1.6437   54.8342 H       1  ZINC000192150625    0.4300
     37 H37        -9.5932    3.7559   57.7518 H       1  ZINC000192150625    0.0700
     38 H38        -9.7804    2.6554   56.3622 H       1  ZINC000192150625    0.1600
     39 H39       -10.1523    1.5181   58.5803 H       1  ZINC000192150625    0.0800
     40 H40        -8.8167    0.8046   57.6437 H       1  ZINC000192150625    0.0700
     41 H41        -8.5089    2.8739   59.8668 H       1  ZINC000192150625    0.0900
     42 H42        -8.4788    2.0015   62.0540 H       1  ZINC000192150625    0.1300
     43 H43        -8.4713    0.0562   63.5641 H       1  ZINC000192150625    0.1600
     44 H44        -7.9062   -2.5460   60.3806 H       1  ZINC000192150625    0.1600
     45 H45        -7.9043   -0.6796   58.7740 H       1  ZINC000192150625    0.1300
     46 H46        -6.0864    2.3630   59.6153 H       1  ZINC000192150625    0.0800
     47 H47        -6.4638    1.2934   58.2427 H       1  ZINC000192150625    0.0700
     48 H48        -5.7914    3.4765   57.3778 H       1  ZINC000192150625    0.1000
     49 H49        -6.9944    4.2911   58.4105 H       1  ZINC000192150625    0.0800
     50 H50        -4.4620    3.3501   52.3906 H       1  ZINC000192150625    0.1400
     51 H51        -2.1645    3.8439   51.6908 H       1  ZINC000192150625    0.1400
@<TRIPOS>BOND
     1     1     2    1
     2     1    29    1
     3     1    30    1
     4     1    31    1
     5     2    28    1
     6     2     3    2
     7     3     4    1
     8     3     5    1
     9     4    32    1
    10     4    33    1
    11     4    34    1
    12     5    27   ar
    13     5     6   ar
    14     6     7   ar
    15     6    35    1
    16     7     8    1
    17     7    25   ar
    18     8     9   am
    19     8    36    1
    20     9    10    2
    21     9    11    1
    22    11    12    2
    23    11    13   am
    24    13    24    1
    25    13    14    1
    26    14    15    1
    27    14    37    1
    28    14    38    1
    29    15    16    1
    30    15    39    1
    31    15    40    1
    32    16    17    1
    33    16    23    1
    34    16    41    1
    35    17    22   ar
    36    17    18   ar
    37    18    19   ar
    38    18    42    1
    39    19    20   ar
    40    19    43    1
    41    20    21   ar
    42    21    22   ar
    43    21    44    1
    44    22    45    1
    45    23    24    1
    46    23    46    1
    47    23    47    1
    48    24    48    1
    49    24    49    1
    50    25    26   ar
    51    25    50    1
    52    26    27   ar
    53    26    51    1
    54    27    28    1
@<TRIPOS>SUBSTRUCTURE
     1 ZINC000192150625        1 TEMP              0 ****  ****    0 ROOT


##########                                Name:    ZINC001362451754
##########                DOCK_Rotatable_Bonds:                   6
##########                         Heavy_Atoms:                  22
##########                    Molecular_Weight:             339.846
##########                DOCK_Rotatable_Bonds:                   6
##########                       Formal_Charge:         -0.00999987
##########                     HBond_Acceptors:                   7
##########                        HBond_Donors:                   1
##########                         Heavy_Atoms:                  22
##########                          Grid_Score:          -27.775658
##########                     Grid_vdw_energy:          -28.340628
##########                      Grid_es_energy:            0.564971
##########           Internal_energy_repulsive:           15.057117

@<TRIPOS>MOLECULE
ZINC001362451754
 40 42 1 0 0
SMALL
USER_CHARGES


@<TRIPOS>ATOM
      1 C1          0.0007    3.1900   46.4954 C.3     1  ZINC001362451754   -0.1700
      2 C2         -1.4636    2.9516   46.8698 C.3     1  ZINC001362451754    0.1400
      3 H3         -2.1043    3.6507   46.3325 H       1  ZINC001362451754    0.0800
      4 C4         -1.8640    1.5015   46.5253 C.3     1  ZINC001362451754   -0.1000
      5 H5         -2.8970    1.4584   46.1801 H       1  ZINC001362451754    0.1000
      6 C6         -0.9168    0.9126   45.4780 C.3     1  ZINC001362451754    0.0900
      7 O7         -1.3796   -0.3830   45.0919 O.3     1  ZINC001362451754   -0.5700
      8 C8         -1.7075    0.7660   47.8824 C.3     1  ZINC001362451754   -0.1200
      9 C9         -2.1523    1.8583   48.8836 C.3     1  ZINC001362451754    0.0900
     10 N10        -1.6431    3.1213   48.3191 N.am    1  ZINC001362451754   -0.6100
     11 C11        -1.3801    4.2440   49.0170 C.2     1  ZINC001362451754    0.6100
     12 O12        -0.9608    5.2324   48.4441 O.2     1  ZINC001362451754   -0.5200
     13 C13        -1.5990    4.2743   50.4661 C.2     1  ZINC001362451754   -0.2500
     14 C14        -2.7919    4.5287   51.0824 C.2     1  ZINC001362451754   -0.0500
     15 C15        -2.7118    4.5006   52.4544 C.2     1  ZINC001362451754   -0.1100
     16 C16        -1.4989    4.2226   52.9467 C.2     1  ZINC001362451754   -0.2500
     17 C17        -1.1729    4.1344   54.4153 C.3     1  ZINC001362451754    0.2100
     18 N18        -2.2388    3.4074   55.1093 N.pl3   1  ZINC001362451754   -0.3700
     19 C19        -3.3439    3.9533   55.6611 C.2     1  ZINC001362451754    0.0700
     20 C20        -4.0755    2.9489   56.1985 C.2     1  ZINC001362451754   -0.1800
     21 Cl21       -5.5928    3.1192   57.0246 Cl      1  ZINC001362451754   -0.0400
     22 C22        -3.3893    1.7500   55.9756 C.2     1  ZINC001362451754    0.0700
     23 N23        -2.2887    2.0238   55.3231 N.2     1  ZINC001362451754   -0.2700
     24 S24        -0.3689    3.9897   51.6898 S.3     1  ZINC001362451754    0.2300
     25 H25         0.6338    2.4910   47.0419 H       1  ZINC001362451754    0.0600
     26 H26         0.1312    3.0372   45.4241 H       1  ZINC001362451754    0.0700
     27 H27         0.2800    4.2114   46.7535 H       1  ZINC001362451754    0.0700
     28 H28        -0.8903    1.5642   44.6046 H       1  ZINC001362451754    0.0500
     29 H29         0.0849    0.8298   45.8999 H       1  ZINC001362451754    0.0500
     30 H30        -0.7858   -1.1037   45.3429 H       1  ZINC001362451754    0.3800
     31 H31        -2.3630   -0.1034   47.9334 H       1  ZINC001362451754    0.0900
     32 H32        -0.6697    0.4810   48.0550 H       1  ZINC001362451754    0.0800
     33 H33        -1.7126    1.6764   49.8642 H       1  ZINC001362451754    0.0800
     34 H34        -3.2397    1.8852   48.9536 H       1  ZINC001362451754    0.0800
     35 H35        -3.7056    4.7355   50.5450 H       1  ZINC001362451754    0.1600
     36 H36        -3.5662    4.6857   53.0887 H       1  ZINC001362451754    0.1500
     37 H37        -0.2282    3.6067   54.5468 H       1  ZINC001362451754    0.1100
     38 H38        -1.0888    5.1389   54.8299 H       1  ZINC001362451754    0.1100
     39 H39        -3.5995    5.0025   55.6699 H       1  ZINC001362451754    0.1800
     40 H40        -3.7122    0.7680   56.2886 H       1  ZINC001362451754    0.1900
@<TRIPOS>BOND
     1     1     2    1
     2     1    25    1
     3     1    26    1
     4     1    27    1
     5     2     3    1
     6     2    10    1
     7     2     4    1
     8     4     5    1
     9     4     6    1
    10     4     8    1
    11     6     7    1
    12     6    28    1
    13     6    29    1
    14     7    30    1
    15     8     9    1
    16     8    31    1
    17     8    32    1
    18     9    10    1
    19     9    33    1
    20     9    34    1
    21    10    11   am
    22    11    12    2
    23    11    13    1
    24    13    24    1
    25    13    14    2
    26    14    15    1
    27    14    35    1
    28    15    16    2
    29    15    36    1
    30    16    17    1
    31    16    24    1
    32    17    18    1
    33    17    37    1
    34    17    38    1
    35    18    23    1
    36    18    19    1
    37    19    20    2
    38    19    39    1
    39    20    21    1
    40    20    22    1
    41    22    23    2
    42    22    40    1
@<TRIPOS>SUBSTRUCTURE
     1 ZINC001362451754        1 TEMP              0 ****  ****    0 ROOT


##########                                Name:    ZINC001191386213
##########                DOCK_Rotatable_Bonds:                   6
##########                         Heavy_Atoms:                  29
##########                    Molecular_Weight:             392.433
##########                DOCK_Rotatable_Bonds:                   6
##########                       Formal_Charge:               -0.02
##########                     HBond_Acceptors:                   7
##########                        HBond_Donors:                   2
##########                         Heavy_Atoms:                  29
##########                          Grid_Score:          -27.760889
##########                     Grid_vdw_energy:          -26.025318
##########                      Grid_es_energy:           -1.735572
##########           Internal_energy_repulsive:           15.249141

@<TRIPOS>MOLECULE
ZINC001191386213
 50 53 1 0 0
SMALL
USER_CHARGES


@<TRIPOS>ATOM
      1 C1         -8.4725   -1.4548   61.2881 C.3     1  ZINC001191386213   -0.1700
      2 C2         -8.1780   -0.8354   59.9461 C.2     1  ZINC001191386213    0.5100
      3 O3         -7.2418   -1.2344   59.2864 O.2     1  ZINC001191386213   -0.5200
      4 N4         -8.9552    0.1617   59.4790 N.am    1  ZINC001191386213   -0.6800
      5 C5         -8.6818    0.7369   58.2329 C.ar    1  ZINC001191386213    0.1400
      6 C6         -9.6367    0.6969   57.2246 C.ar    1  ZINC001191386213   -0.1400
      7 C7         -9.3703    1.2643   55.9929 C.ar    1  ZINC001191386213   -0.1000
      8 C8         -8.1539    1.8734   55.7576 C.ar    1  ZINC001191386213   -0.1100
      9 C9         -7.1901    1.9177   56.7633 C.ar    1  ZINC001191386213    0.0100
     10 C10        -5.8817    2.5724   56.5117 C.2     1  ZINC001191386213    0.0700
     11 N11        -5.1313    3.1802   57.4064 N.2     1  ZINC001191386213   -0.2500
     12 N12        -4.0611    3.6410   56.8667 N.pl3   1  ZINC001191386213   -0.3800
     13 C13        -4.0507    3.3482   55.5318 C.2     1  ZINC001191386213   -0.0400
     14 C14        -3.0021    3.6999   54.5606 C.2     1  ZINC001191386213    0.6100
     15 O15        -3.3004    4.2388   53.5118 O.2     1  ZINC001191386213   -0.5100
     16 N16        -1.7112    3.4248   54.8335 N.am    1  ZINC001191386213   -0.6200
     17 C17        -1.2127    2.7796   56.0569 C.3     1  ZINC001191386213    0.0800
     18 C18         0.3236    2.6958   55.9374 C.3     1  ZINC001191386213   -0.1200
     19 C19         0.6532    3.8080   54.9070 C.3     1  ZINC001191386213   -0.0600
     20 H20         0.7030    4.7845   55.3887 H       1  ZINC001191386213    0.1000
     21 C21         1.9350    3.5039   54.1753 C.ar    1  ZINC001191386213   -0.1100
     22 C22         1.9650    3.5292   52.7941 C.ar    1  ZINC001191386213   -0.0900
     23 C23         3.1409    3.2501   52.1224 C.ar    1  ZINC001191386213   -0.1300
     24 C24         4.2875    2.9450   52.8315 C.ar    1  ZINC001191386213   -0.0900
     25 C25         4.2597    2.9187   54.2132 C.ar    1  ZINC001191386213   -0.1500
     26 C26         3.0846    3.2044   54.8869 C.ar    1  ZINC001191386213    0.1100
     27 F27         3.0562    3.1789   56.2374 F       1  ZINC001191386213   -0.1400
     28 C28        -0.5658    3.7154   53.9520 C.3     1  ZINC001191386213    0.1200
     29 C29        -5.2156    2.6506   55.2750 C.2     1  ZINC001191386213   -0.1300
     30 C30        -7.4597    1.3520   58.0060 C.ar    1  ZINC001191386213   -0.1000
     31 H31        -7.7432   -2.2382   61.4945 H       1  ZINC001191386213    0.1000
     32 H32        -8.4129   -0.6897   62.0623 H       1  ZINC001191386213    0.0900
     33 H33        -9.4742   -1.8843   61.2781 H       1  ZINC001191386213    0.0900
     34 H34        -9.7041    0.4807   60.0067 H       1  ZINC001191386213    0.4100
     35 H35       -10.5894    0.2208   57.4037 H       1  ZINC001191386213    0.1300
     36 H36       -10.1156    1.2308   55.2121 H       1  ZINC001191386213    0.1300
     37 H37        -7.9491    2.3154   54.7937 H       1  ZINC001191386213    0.1300
     38 H38        -3.3642    4.1254   57.3363 H       1  ZINC001191386213    0.4400
     39 H39        -1.4848    3.3759   56.9279 H       1  ZINC001191386213    0.0700
     40 H40        -1.6328    1.7777   56.1452 H       1  ZINC001191386213    0.0800
     41 H41         0.7971    2.9060   56.8964 H       1  ZINC001191386213    0.0900
     42 H42         0.6285    1.7192   55.5614 H       1  ZINC001191386213    0.0900
     43 H43         1.0696    3.7668   52.2389 H       1  ZINC001191386213    0.1300
     44 H44         3.1635    3.2702   51.0428 H       1  ZINC001191386213    0.1300
     45 H45         5.2054    2.7269   52.3058 H       1  ZINC001191386213    0.1300
     46 H46         5.1555    2.6796   54.7670 H       1  ZINC001191386213    0.1400
     47 H47        -0.4221    2.9111   53.2304 H       1  ZINC001191386213    0.0800
     48 H48        -0.7181    4.6645   53.4381 H       1  ZINC001191386213    0.0900
     49 H49        -5.5471    2.2555   54.3262 H       1  ZINC001191386213    0.1700
     50 H50        -6.7158    1.3839   58.7883 H       1  ZINC001191386213    0.1500
@<TRIPOS>BOND
     1     1     2    1
     2     1    31    1
     3     1    32    1
     4     1    33    1
     5     2     3    2
     6     2     4   am
     7     4     5    1
     8     4    34    1
     9     5    30   ar
    10     5     6   ar
    11     6     7   ar
    12     6    35    1
    13     7     8   ar
    14     7    36    1
    15     8     9   ar
    16     8    37    1
    17     9    10    1
    18     9    30   ar
    19    10    29    1
    20    10    11    2
    21    11    12    1
    22    12    13    1
    23    12    38    1
    24    13    14    1
    25    13    29    2
    26    14    15    2
    27    14    16   am
    28    16    28    1
    29    16    17    1
    30    17    18    1
    31    17    39    1
    32    17    40    1
    33    18    19    1
    34    18    41    1
    35    18    42    1
    36    19    20    1
    37    19    21    1
    38    19    28    1
    39    21    26   ar
    40    21    22   ar
    41    22    23   ar
    42    22    43    1
    43    23    24   ar
    44    23    44    1
    45    24    25   ar
    46    24    45    1
    47    25    26   ar
    48    25    46    1
    49    26    27    1
    50    28    47    1
    51    28    48    1
    52    29    49    1
    53    30    50    1
@<TRIPOS>SUBSTRUCTURE
     1 ZINC001191386213        1 TEMP              0 ****  ****    0 ROOT


##########                                Name:    ZINC000866034032
##########                DOCK_Rotatable_Bonds:                   4
##########                         Heavy_Atoms:                  23
##########                    Molecular_Weight:             383.242
##########                DOCK_Rotatable_Bonds:                   4
##########                       Formal_Charge:           0.0199999
##########                     HBond_Acceptors:                   6
##########                        HBond_Donors:                   1
##########                         Heavy_Atoms:                  23
##########                          Grid_Score:          -27.757620
##########                     Grid_vdw_energy:          -25.883030
##########                      Grid_es_energy:           -1.874589
##########           Internal_energy_repulsive:           13.961543

@<TRIPOS>MOLECULE
ZINC000866034032
 42 44 1 0 0
SMALL
USER_CHARGES


@<TRIPOS>ATOM
      1 C1          2.8360    5.3020   53.3202 C.3     1  ZINC000866034032   -0.1300
      2 C2          1.3208    5.1093   53.2299 C.3     1  ZINC000866034032   -0.0800
      3 C3          0.6418    6.1576   52.3461 C.3     1  ZINC000866034032   -0.1300
      4 C4          0.9041    3.6668   52.9040 C.3     1  ZINC000866034032    0.1400
      5 H5          1.6735    3.0991   52.3807 H       1  ZINC000866034032    0.1100
      6 N6         -0.4092    3.5681   52.2624 N.am    1  ZINC000866034032   -0.7000
      7 C7         -0.5064    3.5959   50.9185 C.2     1  ZINC000866034032    0.5100
      8 O8          0.4933    3.7042   50.2403 O.2     1  ZINC000866034032   -0.5300
      9 C9         -1.8571    3.4926   50.2583 C.3     1  ZINC000866034032   -0.1100
     10 C10        -1.7034    2.8705   48.8943 C.ar    1  ZINC000866034032   -0.0500
     11 C11        -1.7440    3.6652   47.7640 C.ar    1  ZINC000866034032   -0.0500
     12 C12        -1.6035    3.0950   46.5126 C.ar    1  ZINC000866034032   -0.0900
     13 C13        -1.4218    1.7293   46.3916 C.ar    1  ZINC000866034032   -0.0500
     14 Br14       -1.2289    0.9489   44.6800 Br      1  ZINC000866034032    0.0200
     15 C15        -1.3808    0.9345   47.5231 C.ar    1  ZINC000866034032   -0.0200
     16 N16        -1.1859   -0.5270   47.3943 N.pl3   1  ZINC000866034032    0.0200
     17 O17        -1.1497   -1.2267   48.3907 O.2     1  ZINC000866034032   -0.1600
     18 O18        -1.0616   -1.0301   46.2920 O.2     1  ZINC000866034032   -0.1300
     19 C19        -1.5161    1.5060   48.7741 C.ar    1  ZINC000866034032   -0.0300
     20 C20         0.8705    3.4038   54.4185 C.3     1  ZINC000866034032   -0.1500
     21 H21         1.7755    2.9835   54.8570 H       1  ZINC000866034032    0.1200
     22 C22        -0.4526    2.7574   54.8862 C.3     1  ZINC000866034032   -0.1400
     23 C23        -1.3346    3.9574   55.2954 C.3     1  ZINC000866034032    0.0500
     24 O24        -0.8072    5.0748   54.5482 O.3     1  ZINC000866034032   -0.3600
     25 C25         0.6432    4.9269   54.5959 C.3     1  ZINC000866034032    0.0600
     26 H26         1.1251    5.4016   55.4507 H       1  ZINC000866034032    0.1000
     27 H27         3.2434    4.6292   54.0749 H       1  ZINC000866034032    0.0600
     28 H28         3.2886    5.0808   52.3537 H       1  ZINC000866034032    0.0700
     29 H29         3.0552    6.3334   53.5966 H       1  ZINC000866034032    0.0700
     30 H30         0.9158    5.9876   51.3049 H       1  ZINC000866034032    0.0600
     31 H31        -0.4400    6.0787   52.4546 H       1  ZINC000866034032    0.0600
     32 H32         0.9657    7.1533   52.6492 H       1  ZINC000866034032    0.0600
     33 H33        -1.2089    3.4826   52.8048 H       1  ZINC000866034032    0.4100
     34 H34        -2.5133    2.8721   50.8686 H       1  ZINC000866034032    0.1100
     35 H35        -2.2892    4.4882   50.1570 H       1  ZINC000866034032    0.1200
     36 H36        -1.8860    4.7317   47.8587 H       1  ZINC000866034032    0.1500
     37 H37        -1.6360    3.7159   45.6294 H       1  ZINC000866034032    0.1600
     38 H38        -1.4836    0.8856   49.6576 H       1  ZINC000866034032    0.1600
     39 H39        -0.9162    2.2036   54.0699 H       1  ZINC000866034032    0.0800
     40 H40        -0.2768    2.1038   55.7406 H       1  ZINC000866034032    0.0800
     41 H41        -2.3739    3.7750   55.0222 H       1  ZINC000866034032    0.0900
     42 H42        -1.2497    4.1430   56.3661 H       1  ZINC000866034032    0.0600
@<TRIPOS>BOND
     1     1     2    1
     2     1    27    1
     3     1    28    1
     4     1    29    1
     5     2    25    1
     6     2     3    1
     7     2     4    1
     8     3    30    1
     9     3    31    1
    10     3    32    1
    11     4     5    1
    12     4     6    1
    13     4    20    1
    14     6     7   am
    15     6    33    1
    16     7     8    2
    17     7     9    1
    18     9    10    1
    19     9    34    1
    20     9    35    1
    21    10    19   ar
    22    10    11   ar
    23    11    12   ar
    24    11    36    1
    25    12    13   ar
    26    12    37    1
    27    13    14    1
    28    13    15   ar
    29    15    16    1
    30    15    19   ar
    31    16    17    2
    32    16    18    2
    33    19    38    1
    34    20    21    1
    35    20    25    1
    36    20    22    1
    37    22    23    1
    38    22    39    1
    39    22    40    1
    40    23    24    1
    41    23    41    1
    42    23    42    1
    43    24    25    1
    44    25    26    1
@<TRIPOS>SUBSTRUCTURE
     1 ZINC000866034032        1 TEMP              0 ****  ****    0 ROOT


##########                                Name:    ZINC000057429281
##########                DOCK_Rotatable_Bonds:                  10
##########                         Heavy_Atoms:                  23
##########                    Molecular_Weight:             331.295
##########                DOCK_Rotatable_Bonds:                  10
##########                       Formal_Charge:          -0.0100002
##########                     HBond_Acceptors:                   9
##########                        HBond_Donors:                   5
##########                         Heavy_Atoms:                  23
##########                          Grid_Score:          -27.755024
##########                     Grid_vdw_energy:          -27.125622
##########                      Grid_es_energy:           -0.629402
##########           Internal_energy_repulsive:           11.787402

@<TRIPOS>MOLECULE
ZINC000057429281
 39 39 1 0 0
SMALL
USER_CHARGES


@<TRIPOS>ATOM
      1 C1         -1.5078    5.0591   50.7969 C.3     1  ZINC000057429281   -0.1500
      2 C2         -1.7323    3.5779   51.1076 C.3     1  ZINC000057429281   -0.0400
      3 H3         -0.7695    3.0846   51.2406 H       1  ZINC000057429281    0.0900
      4 C4         -2.4856    2.9221   49.9487 C.3     1  ZINC000057429281   -0.1300
      5 C5         -1.4962    2.3682   48.9559 C.2     1  ZINC000057429281    0.5200
      6 O6         -1.0148    3.0929   48.1109 O.2     1  ZINC000057429281   -0.5300
      7 N7         -1.1464    1.0677   49.0070 N.am    1  ZINC000057429281   -0.7000
      8 C8         -0.1860    0.5288   48.0409 C.3     1  ZINC000057429281    0.1100
      9 C9          0.4342   -0.7274   48.5963 C.2     1  ZINC000057429281    0.5200
     10 N10         1.7747   -0.8358   48.6827 N.am    1  ZINC000057429281   -0.8500
     11 O11        -0.2732   -1.6408   48.9654 O.2     1  ZINC000057429281   -0.5100
     12 C12        -0.8964    0.2104   46.7506 C.2     1  ZINC000057429281    0.5300
     13 N13        -0.7492    1.0195   45.6828 N.am    1  ZINC000057429281   -0.8400
     14 O14        -1.6005   -0.7740   46.6730 O.2     1  ZINC000057429281   -0.5100
     15 C15        -2.5426    3.4470   52.3715 C.ar    1  ZINC000057429281   -0.0500
     16 C16        -1.9048    3.3282   53.5921 C.ar    1  ZINC000057429281   -0.1200
     17 C17        -2.6480    3.2083   54.7515 C.ar    1  ZINC000057429281   -0.0700
     18 C18        -4.0290    3.2075   54.6903 C.ar    1  ZINC000057429281   -0.1900
     19 C19        -4.8392    3.0763   55.9541 C.3     1  ZINC000057429281    0.5100
     20 F20        -4.4252    4.0436   56.8761 F       1  ZINC000057429281   -0.1800
     21 F21        -6.1945    3.2616   55.6606 F       1  ZINC000057429281   -0.1800
     22 F22        -4.6502    1.8017   56.4989 F       1  ZINC000057429281   -0.1800
     23 C23        -4.6667    3.3278   53.4698 C.ar    1  ZINC000057429281   -0.0700
     24 C24        -3.9236    3.4516   52.3108 C.ar    1  ZINC000057429281   -0.1100
     25 H25        -0.9712    5.5264   51.6225 H       1  ZINC000057429281    0.0600
     26 H26        -0.9217    5.1538   49.8827 H       1  ZINC000057429281    0.0800
     27 H27        -2.4707    5.5525   50.6638 H       1  ZINC000057429281    0.0500
     28 H28        -3.1079    2.1132   50.3312 H       1  ZINC000057429281    0.1000
     29 H29        -3.1154    3.6643   49.4583 H       1  ZINC000057429281    0.1000
     30 H30        -1.5306    0.4883   49.6836 H       1  ZINC000057429281    0.4200
     31 H31         0.5939    1.2669   47.8537 H       1  ZINC000057429281    0.1300
     32 H32         2.1740   -1.6443   49.0401 H       1  ZINC000057429281    0.4000
     33 H33         2.3403   -0.1053   48.3872 H       1  ZINC000057429281    0.4100
     34 H34        -1.2064    0.8145   44.8522 H       1  ZINC000057429281    0.4000
     35 H35        -0.1859    1.8067   45.7448 H       1  ZINC000057429281    0.4100
     36 H36        -0.8258    3.3288   53.6400 H       1  ZINC000057429281    0.1400
     37 H37        -2.1497    3.1147   55.7051 H       1  ZINC000057429281    0.1400
     38 H38        -5.7457    3.3276   53.4219 H       1  ZINC000057429281    0.1400
     39 H39        -4.4218    3.5456   51.3572 H       1  ZINC000057429281    0.1400
@<TRIPOS>BOND
     1     1     2    1
     2     1    25    1
     3     1    26    1
     4     1    27    1
     5     2     3    1
     6     2     4    1
     7     2    15    1
     8     4     5    1
     9     4    28    1
    10     4    29    1
    11     5     6    2
    12     5     7   am
    13     7     8    1
    14     7    30    1
    15     8     9    1
    16     8    12    1
    17     8    31    1
    18     9    10   am
    19     9    11    2
    20    10    32    1
    21    10    33    1
    22    12    13   am
    23    12    14    2
    24    13    34    1
    25    13    35    1
    26    15    24   ar
    27    15    16   ar
    28    16    17   ar
    29    16    36    1
    30    17    18   ar
    31    17    37    1
    32    18    19    1
    33    18    23   ar
    34    19    20    1
    35    19    21    1
    36    19    22    1
    37    23    24   ar
    38    23    38    1
    39    24    39    1
@<TRIPOS>SUBSTRUCTURE
     1 ZINC000057429281        1 TEMP              0 ****  ****    0 ROOT


##########                                Name:    ZINC000774689801
##########                DOCK_Rotatable_Bonds:                   4
##########                         Heavy_Atoms:                  24
##########                    Molecular_Weight:             347.395
##########                DOCK_Rotatable_Bonds:                   4
##########                       Formal_Charge:         -0.00999961
##########                     HBond_Acceptors:                   8
##########                        HBond_Donors:                   1
##########                         Heavy_Atoms:                  24
##########                          Grid_Score:          -27.733383
##########                     Grid_vdw_energy:          -26.592428
##########                      Grid_es_energy:           -1.140956
##########           Internal_energy_repulsive:            6.021405

@<TRIPOS>MOLECULE
ZINC000774689801
 41 44 1 0 0
SMALL
USER_CHARGES


@<TRIPOS>ATOM
      1 C1        -11.0259   -1.8858   59.4789 C.3     1  ZINC000774689801   -0.1200
      2 C2         -9.9678   -0.9488   58.9557 C.2     1  ZINC000774689801    0.0600
      3 C3         -9.0689   -0.3613   59.7618 C.2     1  ZINC000774689801   -0.2800
      4 C4         -9.0004   -0.5488   61.2125 C.2     1  ZINC000774689801    0.5500
      5 O5         -8.7506   -1.6466   61.6727 O.2     1  ZINC000774689801   -0.4900
      6 O6         -9.2141    0.4961   62.0385 O.3     1  ZINC000774689801   -0.3400
      7 C7         -9.0648    0.2523   63.4621 C.3     1  ZINC000774689801    0.0900
      8 C8         -7.5776    0.1746   63.8129 C.3     1  ZINC000774689801   -0.1300
      9 H9         -7.0895   -0.6069   63.2306 H       1  ZINC000774689801    0.1200
     10 C10        -6.8921    1.5390   63.5692 C.3     1  ZINC000774689801   -0.1300
     11 C11        -5.8794    1.5954   64.7344 C.3     1  ZINC000774689801    0.1000
     12 N12        -6.4430    0.7393   65.7848 N.am    1  ZINC000774689801   -0.7400
     13 C13        -7.3953   -0.0763   65.2936 C.2     1  ZINC000774689801    0.5200
     14 O14        -8.0172   -0.8891   65.9444 O.2     1  ZINC000774689801   -0.5100
     15 S15        -7.9869    0.6624   58.8330 S.3     1  ZINC000774689801    0.3000
     16 C16        -8.8092    0.2529   57.3322 C.2     1  ZINC000774689801    0.1000
     17 C17        -9.8530   -0.6383   57.6020 C.2     1  ZINC000774689801   -0.2500
     18 C18       -10.6564   -1.0927   56.4511 C.2     1  ZINC000774689801    0.5700
     19 O19       -11.5829   -1.8680   56.6068 O.2     1  ZINC000774689801   -0.5000
     20 N20       -10.3425   -0.6296   55.2184 N.am    1  ZINC000774689801   -0.5500
     21 C21       -10.9829   -0.9351   53.9275 C.3     1  ZINC000774689801    0.0900
     22 C22       -10.5243    0.1781   52.9631 C.3     1  ZINC000774689801   -0.1300
     23 C23        -9.1767    0.6009   53.5869 C.3     1  ZINC000774689801   -0.0800
     24 C24        -9.3106    0.2369   55.0562 C.2     1  ZINC000774689801    0.4200
     25 N25        -8.5872    0.6436   56.0654 N.2     1  ZINC000774689801   -0.5100
     26 H26       -10.6411   -2.9056   59.4772 H       1  ZINC000774689801    0.0800
     27 H27       -11.2933   -1.6001   60.4963 H       1  ZINC000774689801    0.1000
     28 H28       -11.9084   -1.8294   58.8418 H       1  ZINC000774689801    0.0800
     29 H29        -9.5279    1.0657   64.0206 H       1  ZINC000774689801    0.0900
     30 H30        -9.5492   -0.6889   63.7223 H       1  ZINC000774689801    0.0800
     31 H31        -6.3806    1.5522   62.6068 H       1  ZINC000774689801    0.1000
     32 H32        -7.6116    2.3549   63.6380 H       1  ZINC000774689801    0.0900
     33 H33        -4.9120    1.2099   64.4123 H       1  ZINC000774689801    0.0800
     34 H34        -5.7771    2.6185   65.0961 H       1  ZINC000774689801    0.0800
     35 H35        -6.1642    0.7572   66.7137 H       1  ZINC000774689801    0.4100
     36 H36       -10.6525   -1.9082   53.5640 H       1  ZINC000774689801    0.1000
     37 H37       -12.0677   -0.9197   54.0321 H       1  ZINC000774689801    0.1000
     38 H38       -10.3820   -0.2130   51.9557 H       1  ZINC000774689801    0.1100
     39 H39       -11.2308    1.0081   52.9616 H       1  ZINC000774689801    0.0900
     40 H40        -8.3556    0.0479   53.1307 H       1  ZINC000774689801    0.1200
     41 H41        -9.0242    1.6741   53.4727 H       1  ZINC000774689801    0.1200
@<TRIPOS>BOND
     1     1     2    1
     2     1    26    1
     3     1    27    1
     4     1    28    1
     5     2    17    1
     6     2     3    2
     7     3     4    1
     8     3    15    1
     9     4     5    2
    10     4     6    1
    11     6     7    1
    12     7     8    1
    13     7    29    1
    14     7    30    1
    15     8     9    1
    16     8    13    1
    17     8    10    1
    18    10    11    1
    19    10    31    1
    20    10    32    1
    21    11    12    1
    22    11    33    1
    23    11    34    1
    24    12    13   am
    25    12    35    1
    26    13    14    2
    27    15    16    1
    28    16    25    1
    29    16    17    2
    30    17    18    1
    31    18    19    2
    32    18    20   am
    33    20    24    1
    34    20    21    1
    35    21    22    1
    36    21    36    1
    37    21    37    1
    38    22    23    1
    39    22    38    1
    40    22    39    1
    41    23    24    1
    42    23    40    1
    43    23    41    1
    44    24    25    2
@<TRIPOS>SUBSTRUCTURE
     1 ZINC000774689801        1 TEMP              0 ****  ****    0 ROOT


##########                                Name:    ZINC000426037318
##########                DOCK_Rotatable_Bonds:                   7
##########                         Heavy_Atoms:                  28
##########                    Molecular_Weight:             421.904
##########                DOCK_Rotatable_Bonds:                   7
##########                       Formal_Charge:         -0.00999981
##########                     HBond_Acceptors:                   9
##########                        HBond_Donors:                   1
##########                         Heavy_Atoms:                  28
##########                          Grid_Score:          -27.730459
##########                     Grid_vdw_energy:          -29.292795
##########                      Grid_es_energy:            1.562336
##########           Internal_energy_repulsive:           19.356661

@<TRIPOS>MOLECULE
ZINC000426037318
 48 50 1 0 0
SMALL
USER_CHARGES


@<TRIPOS>ATOM
      1 C1        -10.0755   -1.2638   51.8443 C.3     1  ZINC000426037318    0.0300
      2 O2        -11.0179   -0.3419   52.3956 O.3     1  ZINC000426037318   -0.3800
      3 C3        -10.4204    0.7528   53.0931 C.3     1  ZINC000426037318    0.1300
      4 C4        -10.2470    0.3889   54.5451 C.ar    1  ZINC000426037318    0.3900
      5 N5        -11.0765   -0.4838   55.0883 N.ar    1  ZINC000426037318   -0.5700
      6 C6        -10.9678   -0.8378   56.3577 C.ar    1  ZINC000426037318    0.4400
      7 O7        -11.8266   -1.7339   56.8971 O.3     1  ZINC000426037318   -0.2800
      8 C8        -12.3176   -2.7622   56.0347 C.3     1  ZINC000426037318    0.0300
      9 C9         -9.9349   -0.2634   57.1468 C.ar    1  ZINC000426037318   -0.2000
     10 C10        -9.6120   -0.4682   58.4932 C.2     1  ZINC000426037318    0.0500
     11 C11       -10.3888   -1.4150   59.3713 C.3     1  ZINC000426037318   -0.1200
     12 C12        -8.5667    0.2333   58.9483 C.2     1  ZINC000426037318   -0.2700
     13 C13        -8.0557    0.1729   60.3234 C.2     1  ZINC000426037318    0.6000
     14 O14        -7.1945   -0.6351   60.6175 O.2     1  ZINC000426037318   -0.5000
     15 N15        -8.5403    1.0122   61.2599 N.am    1  ZINC000426037318   -0.6600
     16 C16        -8.0527    0.9546   62.5718 C.ar    1  ZINC000426037318    0.1200
     17 C17        -6.9708    1.7396   62.9457 C.ar    1  ZINC000426037318   -0.0700
     18 C18        -6.4908    1.6827   64.2397 C.ar    1  ZINC000426037318   -0.0900
     19 C19        -5.3165    2.5355   64.6455 C.3     1  ZINC000426037318   -0.1100
     20 C20        -7.0892    0.8413   65.1658 C.ar    1  ZINC000426037318    0.1300
     21 O21        -6.6160    0.7864   66.4393 O.3     1  ZINC000426037318   -0.3100
     22 C22        -7.1792   -0.2068   67.2985 C.3     1  ZINC000426037318    0.0200
     23 C23        -8.1707    0.0559   64.7938 C.ar    1  ZINC000426037318   -0.1800
     24 C24        -8.6555    0.1154   63.5015 C.ar    1  ZINC000426037318   -0.0300
     25 Cl25      -10.0091   -0.8668   63.0357 Cl      1  ZINC000426037318   -0.0600
     26 S26        -7.8905    1.2348   57.6751 S.3     1  ZINC000426037318    0.2200
     27 C27        -9.0831    0.6572   56.5192 C.ar    1  ZINC000426037318    0.1300
     28 N28        -9.2727    0.9458   55.2272 N.ar    1  ZINC000426037318   -0.5000
     29 H29       -10.6081   -2.0648   51.3316 H       1  ZINC000426037318    0.0900
     30 H30        -9.4311   -0.7441   51.1353 H       1  ZINC000426037318    0.0500
     31 H31        -9.4684   -1.6856   52.6454 H       1  ZINC000426037318    0.0500
     32 H32        -9.4472    0.9749   52.6553 H       1  ZINC000426037318    0.0900
     33 H33       -11.0635    1.6293   53.0126 H       1  ZINC000426037318    0.0800
     34 H34       -11.4809   -3.3495   55.6566 H       1  ZINC000426037318    0.0700
     35 H35       -12.9945   -3.4105   56.5911 H       1  ZINC000426037318    0.1100
     36 H36       -12.8520   -2.3109   55.1987 H       1  ZINC000426037318    0.0700
     37 H37        -9.9452   -2.4091   59.3153 H       1  ZINC000426037318    0.0900
     38 H38       -10.3594   -1.0616   60.4020 H       1  ZINC000426037318    0.1000
     39 H39       -11.4236   -1.4593   59.0318 H       1  ZINC000426037318    0.0800
     40 H40        -9.2266    1.6564   61.0254 H       1  ZINC000426037318    0.4100
     41 H41        -6.5042    2.3947   62.2249 H       1  ZINC000426037318    0.1600
     42 H42        -5.6754    3.4961   65.0148 H       1  ZINC000426037318    0.0700
     43 H43        -4.7552    2.0306   65.4318 H       1  ZINC000426037318    0.0700
     44 H44        -4.6692    2.6966   63.7834 H       1  ZINC000426037318    0.0700
     45 H45        -8.2523   -0.0402   67.3919 H       1  ZINC000426037318    0.0600
     46 H46        -7.0003   -1.1958   66.8769 H       1  ZINC000426037318    0.0600
     47 H47        -6.7145   -0.1419   68.2825 H       1  ZINC000426037318    0.1000
     48 H48        -8.6361   -0.5990   65.5155 H       1  ZINC000426037318    0.1500
@<TRIPOS>BOND
     1     1     2    1
     2     1    29    1
     3     1    30    1
     4     1    31    1
     5     2     3    1
     6     3     4    1
     7     3    32    1
     8     3    33    1
     9     4    28   ar
    10     4     5   ar
    11     5     6   ar
    12     6     7    1
    13     6     9   ar
    14     7     8    1
    15     8    34    1
    16     8    35    1
    17     8    36    1
    18     9    27   ar
    19     9    10    1
    20    10    11    1
    21    10    12    2
    22    11    37    1
    23    11    38    1
    24    11    39    1
    25    12    13    1
    26    12    26    1
    27    13    14    2
    28    13    15   am
    29    15    16    1
    30    15    40    1
    31    16    24   ar
    32    16    17   ar
    33    17    18   ar
    34    17    41    1
    35    18    19    1
    36    18    20   ar
    37    19    42    1
    38    19    43    1
    39    19    44    1
    40    20    21    1
    41    20    23   ar
    42    21    22    1
    43    22    45    1
    44    22    46    1
    45    22    47    1
    46    23    24   ar
    47    23    48    1
    48    24    25    1
    49    26    27    1
    50    27    28   ar
@<TRIPOS>SUBSTRUCTURE
     1 ZINC000426037318        1 TEMP              0 ****  ****    0 ROOT


##########                                Name:    ZINC001011676549
##########                DOCK_Rotatable_Bonds:                   6
##########                         Heavy_Atoms:                  24
##########                    Molecular_Weight:             330.387
##########                DOCK_Rotatable_Bonds:                   6
##########                       Formal_Charge:        -1.49012e-07
##########                     HBond_Acceptors:                   7
##########                        HBond_Donors:                   1
##########                         Heavy_Atoms:                  24
##########                          Grid_Score:          -27.728010
##########                     Grid_vdw_energy:          -27.112085
##########                      Grid_es_energy:           -0.615926
##########           Internal_energy_repulsive:           14.151266

@<TRIPOS>MOLECULE
ZINC001011676549
 46 48 1 0 0
SMALL
USER_CHARGES


@<TRIPOS>ATOM
      1 C1          0.5437    3.0249   51.4545 C.3     1  ZINC001011676549   -0.1700
      2 C2         -0.5023    4.1240   51.2571 C.3     1  ZINC001011676549    0.1300
      3 H3         -0.0187    5.1008   51.2617 H       1  ZINC001011676549    0.0900
      4 C4         -1.2417    3.9107   49.9195 C.3     1  ZINC001011676549    0.1400
      5 H5         -1.4815    4.8670   49.4546 H       1  ZINC001011676549    0.1100
      6 N6         -0.4441    3.0813   49.0128 N.am    1  ZINC001011676549   -0.7200
      7 C7         -0.8805    2.8401   47.7606 C.2     1  ZINC001011676549    0.5200
      8 O8         -1.9343    3.3085   47.3850 O.2     1  ZINC001011676549   -0.5300
      9 C9         -0.0592    1.9884   46.8274 C.3     1  ZINC001011676549   -0.0900
     10 C10         0.2331    0.6633   47.4829 C.ar    1  ZINC001011676549   -0.1800
     11 C11        -0.7871   -0.0965   48.0331 C.ar    1  ZINC001011676549    0.1600
     12 N12        -0.4926   -1.2552   48.6005 N.ar    1  ZINC001011676549   -0.5200
     13 C13         0.7515   -1.6878   48.6460 C.ar    1  ZINC001011676549    0.3000
     14 N14         1.7468   -0.9926   48.1334 N.ar    1  ZINC001011676549   -0.5200
     15 C15         1.5277    0.1724   47.5450 C.ar    1  ZINC001011676549    0.1600
     16 C16        -2.5352    3.1707   50.3516 C.3     1  ZINC001011676549   -0.1400
     17 C17        -2.8324    3.8363   51.7184 C.3     1  ZINC001011676549    0.1000
     18 N18        -1.5056    4.0577   52.3296 N.am    1  ZINC001011676549   -0.6100
     19 C19        -1.2585    4.1754   53.6493 C.2     1  ZINC001011676549    0.5800
     20 O20        -0.1216    4.3568   54.0413 O.2     1  ZINC001011676549   -0.5300
     21 C21        -2.3639    4.0844   54.6156 C.2     1  ZINC001011676549   -0.1400
     22 C22        -2.8546    5.1975   55.1302 C.2     1  ZINC001011676549   -0.1500
     23 C23        -3.9766    5.2009   56.1297 C.3     1  ZINC001011676549    0.0900
     24 O24        -4.6307    3.9305   56.1378 O.3     1  ZINC001011676549   -0.3800
     25 C25        -3.7216    2.8311   56.2696 C.3     1  ZINC001011676549    0.0600
     26 C26        -2.9009    2.7272   54.9794 C.3     1  ZINC001011676549   -0.1100
     27 H27         0.0518    2.0522   51.4612 H       1  ZINC001011676549    0.0600
     28 H28         1.2666    3.0608   50.6395 H       1  ZINC001011676549    0.0700
     29 H29         1.0578    3.1787   52.4031 H       1  ZINC001011676549    0.0800
     30 H30         0.3981    2.7058   49.3135 H       1  ZINC001011676549    0.4100
     31 H31        -0.6140    1.8224   45.9039 H       1  ZINC001011676549    0.1100
     32 H32         0.8782    2.4967   46.6017 H       1  ZINC001011676549    0.1100
     33 H33        -1.8087    0.2524   47.9995 H       1  ZINC001011676549    0.1700
     34 H34         0.9609   -2.6374   49.1161 H       1  ZINC001011676549    0.2000
     35 H35         2.3478    0.7370   47.1265 H       1  ZINC001011676549    0.1700
     36 H36        -3.3443    3.3528   49.6443 H       1  ZINC001011676549    0.0900
     37 H37        -2.3537    2.1024   50.4685 H       1  ZINC001011676549    0.0800
     38 H38        -3.3453    4.7872   51.5739 H       1  ZINC001011676549    0.0800
     39 H39        -3.4313    3.1722   52.3416 H       1  ZINC001011676549    0.0800
     40 H40        -2.4326    6.1423   54.8206 H       1  ZINC001011676549    0.1200
     41 H41        -3.5760    5.4075   57.1221 H       1  ZINC001011676549    0.0700
     42 H42        -4.6955    5.9759   55.8636 H       1  ZINC001011676549    0.1100
     43 H43        -3.0584    3.0037   57.1171 H       1  ZINC001011676549    0.0600
     44 H44        -4.2821    1.9085   56.4212 H       1  ZINC001011676549    0.1000
     45 H45        -3.5345    2.3533   54.1751 H       1  ZINC001011676549    0.0900
     46 H46        -2.0677    2.0415   55.1333 H       1  ZINC001011676549    0.0900
@<TRIPOS>BOND
     1     1     2    1
     2     1    27    1
     3     1    28    1
     4     1    29    1
     5     2     3    1
     6     2    18    1
     7     2     4    1
     8     4     5    1
     9     4     6    1
    10     4    16    1
    11     6     7   am
    12     6    30    1
    13     7     8    2
    14     7     9    1
    15     9    10    1
    16     9    31    1
    17     9    32    1
    18    10    15   ar
    19    10    11   ar
    20    11    12   ar
    21    11    33    1
    22    12    13   ar
    23    13    14   ar
    24    13    34    1
    25    14    15   ar
    26    15    35    1
    27    16    17    1
    28    16    36    1
    29    16    37    1
    30    17    18    1
    31    17    38    1
    32    17    39    1
    33    18    19   am
    34    19    20    2
    35    19    21    1
    36    21    26    1
    37    21    22    2
    38    22    23    1
    39    22    40    1
    40    23    24    1
    41    23    41    1
    42    23    42    1
    43    24    25    1
    44    25    26    1
    45    25    43    1
    46    25    44    1
    47    26    45    1
    48    26    46    1
@<TRIPOS>SUBSTRUCTURE
     1 ZINC001011676549        1 TEMP              0 ****  ****    0 ROOT


##########                                Name:    ZINC001018118384
##########                DOCK_Rotatable_Bonds:                   5
##########                         Heavy_Atoms:                  25
##########                    Molecular_Weight:             347.374
##########                DOCK_Rotatable_Bonds:                   5
##########                       Formal_Charge:           0.0299997
##########                     HBond_Acceptors:                   9
##########                        HBond_Donors:                   2
##########                         Heavy_Atoms:                  25
##########                          Grid_Score:          -27.705853
##########                     Grid_vdw_energy:          -26.164589
##########                      Grid_es_energy:           -1.541263
##########           Internal_energy_repulsive:           97.241791

@<TRIPOS>MOLECULE
ZINC001018118384
 46 48 1 0 0
SMALL
USER_CHARGES


@<TRIPOS>ATOM
      1 C1         -8.8444   -0.5967   52.7869 C.3     1  ZINC001018118384   -0.0700
      2 C2         -9.8243   -0.3950   53.9139 C.2     1  ZINC001018118384    0.2200
      3 N3        -11.0528   -0.8247   53.9334 N.2     1  ZINC001018118384   -0.4600
      4 C4        -11.6284   -0.4559   55.1063 C.2     1  ZINC001018118384   -0.0700
      5 C5        -13.0105   -0.7445   55.5269 C.2     1  ZINC001018118384    0.6100
      6 O6        -13.8539    0.1308   55.4863 O.2     1  ZINC001018118384   -0.5400
      7 N7        -13.3402   -1.9786   55.9567 N.am    1  ZINC001018118384   -0.5900
      8 C8        -12.3311   -3.0448   56.0171 C.3     1  ZINC001018118384    0.0700
      9 C9        -12.3243   -3.6377   57.4296 C.3     1  ZINC001018118384    0.1300
     10 H10       -11.6490   -4.4928   57.4619 H       1  ZINC001018118384    0.1100
     11 N11       -11.8732   -2.6220   58.3841 N.am    1  ZINC001018118384   -0.7000
     12 C12       -10.9947   -2.9499   59.3522 C.2     1  ZINC001018118384    0.6000
     13 O13       -10.5779   -4.0882   59.4342 O.2     1  ZINC001018118384   -0.4900
     14 C14       -10.5370   -1.9219   60.3167 C.2     1  ZINC001018118384    0.0300
     15 C15       -11.0783   -0.6838   60.4966 C.2     1  ZINC001018118384   -0.2300
     16 C16       -10.2818   -0.1057   61.5249 C.2     1  ZINC001018118384    0.4800
     17 O17       -10.4037    1.0049   62.0144 O.2     1  ZINC001018118384   -0.5200
     18 N18        -9.3653   -1.0409   61.8460 N.am    1  ZINC001018118384   -0.4500
     19 C19        -8.3300   -0.8735   62.8690 C.3     1  ZINC001018118384    0.1100
     20 O20        -9.5164   -2.0387   61.1797 O.3     1  ZINC001018118384    0.0000
     21 C21       -13.7397   -4.0906   57.7953 C.3     1  ZINC001018118384   -0.1300
     22 C22       -14.6821   -2.8849   57.7821 C.3     1  ZINC001018118384   -0.1300
     23 C23       -14.7143   -2.2818   56.3794 C.3     1  ZINC001018118384    0.1400
     24 H24       -15.1550   -2.9965   55.6843 H       1  ZINC001018118384    0.0700
     25 C25       -15.5472   -0.9984   56.3919 C.3     1  ZINC001018118384   -0.1400
     26 C26       -10.6935    0.2304   55.8249 C.2     1  ZINC001018118384    0.0400
     27 N27        -9.5661    0.2597   55.0759 N.pl3   1  ZINC001018118384   -0.5600
     28 H28        -8.2978   -1.5268   52.9428 H       1  ZINC001018118384    0.0900
     29 H29        -9.3837   -0.6466   51.8410 H       1  ZINC001018118384    0.1000
     30 H30        -8.1429    0.2371   52.7617 H       1  ZINC001018118384    0.0800
     31 H31       -12.5782   -3.8232   55.2952 H       1  ZINC001018118384    0.0800
     32 H32       -11.3485   -2.6312   55.7897 H       1  ZINC001018118384    0.1500
     33 H33       -12.2068   -1.7135   58.3194 H       1  ZINC001018118384    0.4100
     34 H34       -11.9172   -0.2434   59.9784 H       1  ZINC001018118384    0.1900
     35 H35        -8.7118   -1.2144   63.8313 H       1  ZINC001018118384    0.0800
     36 H36        -7.4526   -1.4605   62.5975 H       1  ZINC001018118384    0.0900
     37 H37        -8.0555    0.1790   62.9392 H       1  ZINC001018118384    0.1100
     38 H38       -14.0835   -4.8283   57.0704 H       1  ZINC001018118384    0.0900
     39 H39       -13.7329   -4.5354   58.7904 H       1  ZINC001018118384    0.0800
     40 H40       -15.6852   -3.2041   58.0654 H       1  ZINC001018118384    0.0800
     41 H41       -14.3250   -2.1361   58.4890 H       1  ZINC001018118384    0.0600
     42 H42       -15.1135   -0.2908   57.0984 H       1  ZINC001018118384    0.0700
     43 H43       -15.5524   -0.5589   55.3944 H       1  ZINC001018118384    0.0800
     44 H44       -16.5690   -1.2312   56.6916 H       1  ZINC001018118384    0.0400
     45 H45       -10.8260    0.6634   56.8053 H       1  ZINC001018118384    0.1900
     46 H46        -8.7267    0.6787   55.3221 H       1  ZINC001018118384    0.4300
@<TRIPOS>BOND
     1     1     2    1
     2     1    28    1
     3     1    29    1
     4     1    30    1
     5     2    27    1
     6     2     3    2
     7     3     4    1
     8     4     5    1
     9     4    26    2
    10     5     6    2
    11     5     7   am
    12     7    23    1
    13     7     8    1
    14     8     9    1
    15     8    31    1
    16     8    32    1
    17     9    10    1
    18     9    11    1
    19     9    21    1
    20    11    12   am
    21    11    33    1
    22    12    13    2
    23    12    14    1
    24    14    20    1
    25    14    15    2
    26    15    16    1
    27    15    34    1
    28    16    17    2
    29    16    18   am
    30    18    19    1
    31    18    20    1
    32    19    35    1
    33    19    36    1
    34    19    37    1
    35    21    22    1
    36    21    38    1
    37    21    39    1
    38    22    23    1
    39    22    40    1
    40    22    41    1
    41    23    24    1
    42    23    25    1
    43    25    42    1
    44    25    43    1
    45    25    44    1
    46    26    27    1
    47    26    45    1
    48    27    46    1
@<TRIPOS>SUBSTRUCTURE
     1 ZINC001018118384        1 TEMP              0 ****  ****    0 ROOT


##########                                Name:    ZINC000906038034
##########                DOCK_Rotatable_Bonds:                   5
##########                         Heavy_Atoms:                  23
##########                    Molecular_Weight:             387.428
##########                DOCK_Rotatable_Bonds:                   5
##########                       Formal_Charge:         -0.00999987
##########                     HBond_Acceptors:                  12
##########                        HBond_Donors:                   0
##########                         Heavy_Atoms:                  23
##########                          Grid_Score:          -27.668198
##########                     Grid_vdw_energy:          -24.834496
##########                      Grid_es_energy:           -2.833703
##########           Internal_energy_repulsive:            2.622027

@<TRIPOS>MOLECULE
ZINC000906038034
 35 36 1 0 0
SMALL
USER_CHARGES


@<TRIPOS>ATOM
      1 C1          6.0163    2.2368   43.1895 C.3     1  ZINC000906038034    0.1000
      2 N2          4.6995    1.6470   42.9354 N.pl3   1  ZINC000906038034   -0.3700
      3 C3          4.3741    0.8556   41.8902 C.2     1  ZINC000906038034    0.0600
      4 C4          3.0726    0.5175   42.0114 C.2     1  ZINC000906038034   -0.2500
      5 C5          2.5749    1.1270   43.1817 C.2     1  ZINC000906038034    0.1200
      6 C6          1.1928    1.0225   43.6976 C.2     1  ZINC000906038034    0.1500
      7 N7          0.7442    1.5944   44.7780 N.2     1  ZINC000906038034   -0.4300
      8 C8         -0.5172    1.3891   45.0824 C.2     1  ZINC000906038034    0.0600
      9 C9         -1.1542    1.9959   46.3059 C.3     1  ZINC000906038034   -0.5300
     10 S10        -1.0474    0.8247   47.6870 S.o2    1  ZINC000906038034    2.4200
     11 O11        -1.6379   -0.4039   47.2856 O.2     1  ZINC000906038034   -0.9100
     12 O12         0.2856    0.8255   48.1793 O.2     1  ZINC000906038034   -0.9200
     13 C13        -2.1206    1.6049   48.9239 C.3     1  ZINC000906038034   -0.6100
     14 C14        -1.3824    2.7773   49.5731 C.3     1  ZINC000906038034   -0.4500
     15 S15        -2.2238    3.2449   51.1106 S.o     1  ZINC000906038034    1.3300
     16 O16        -3.5334    3.7085   50.8117 O.2     1  ZINC000906038034   -0.7600
     17 C17        -1.2186    4.6256   51.7220 C.3     1  ZINC000906038034    0.1200
     18 F18        -1.2163    5.6559   50.7756 F       1  ZINC000906038034   -0.1900
     19 F19        -1.7568    5.0977   52.9240 F       1  ZINC000906038034   -0.1700
     20 F20         0.0925    4.1880   51.9382 F       1  ZINC000906038034   -0.1600
     21 C21        -1.2007    0.6091   44.2392 C.2     1  ZINC000906038034   -0.2300
     22 S22        -0.1131    0.1104   42.9450 S.3     1  ZINC000906038034    0.1600
     23 N23         3.5615    1.8015   43.7374 N.2     1  ZINC000906038034   -0.2400
     24 H24         6.6109    1.5514   43.7935 H       1  ZINC000906038034    0.0800
     25 H25         6.5224    2.4180   42.2412 H       1  ZINC000906038034    0.0900
     26 H26         5.8953    3.1797   43.7228 H       1  ZINC000906038034    0.0900
     27 H27         5.0386    0.5475   41.0965 H       1  ZINC000906038034    0.1800
     28 H28         2.5120   -0.1080   41.3325 H       1  ZINC000906038034    0.1600
     29 H29        -0.6325    2.9161   46.5687 H       1  ZINC000906038034    0.1500
     30 H30        -2.2008    2.2183   46.0983 H       1  ZINC000906038034    0.1600
     31 H31        -3.0272    1.9691   48.4405 H       1  ZINC000906038034    0.1500
     32 H32        -2.3851    0.8741   49.6882 H       1  ZINC000906038034    0.1500
     33 H33        -0.3568    2.4826   49.7952 H       1  ZINC000906038034    0.1600
     34 H34        -1.3765    3.6262   48.8894 H       1  ZINC000906038034    0.1300
     35 H35        -2.2412    0.3351   44.3326 H       1  ZINC000906038034    0.1900
@<TRIPOS>BOND
     1     1     2    1
     2     1    24    1
     3     1    25    1
     4     1    26    1
     5     2    23    1
     6     2     3    1
     7     3     4    2
     8     3    27    1
     9     4     5    1
    10     4    28    1
    11     5     6    1
    12     5    23    2
    13     6    22    1
    14     6     7    2
    15     7     8    1
    16     8     9    1
    17     8    21    2
    18     9    10    1
    19     9    29    1
    20     9    30    1
    21    10    11    2
    22    10    12    2
    23    10    13    1
    24    13    14    1
    25    13    31    1
    26    13    32    1
    27    14    15    1
    28    14    33    1
    29    14    34    1
    30    15    16    2
    31    15    17    1
    32    17    18    1
    33    17    19    1
    34    17    20    1
    35    21    22    1
    36    21    35    1
@<TRIPOS>SUBSTRUCTURE
     1 ZINC000906038034        1 TEMP              0 ****  ****    0 ROOT


##########                                Name:    ZINC001065334255
##########                DOCK_Rotatable_Bonds:                   7
##########                         Heavy_Atoms:                  23
##########                    Molecular_Weight:             346.448
##########                DOCK_Rotatable_Bonds:                   7
##########                       Formal_Charge:        -5.81145e-07
##########                     HBond_Acceptors:                   8
##########                        HBond_Donors:                   1
##########                         Heavy_Atoms:                  23
##########                          Grid_Score:          -27.666357
##########                     Grid_vdw_energy:          -26.336363
##########                      Grid_es_energy:           -1.329994
##########           Internal_energy_repulsive:           17.066185

@<TRIPOS>MOLECULE
ZINC001065334255
 49 50 1 0 0
SMALL
USER_CHARGES


@<TRIPOS>ATOM
      1 C1         -4.3175    4.7285   54.9166 C.3     1  ZINC001065334255   -0.1500
      2 C2         -4.0445    3.2267   55.0221 C.3     1  ZINC001065334255   -0.0800
      3 C3         -2.5743    2.9518   54.6998 C.3     1  ZINC001065334255   -0.1500
      4 C4         -4.3527    2.7509   56.4432 C.3     1  ZINC001065334255   -0.1400
      5 C5         -5.8216    2.9327   56.7265 C.2     1  ZINC001065334255    0.5100
      6 O6         -6.2130    3.9406   57.2759 O.2     1  ZINC001065334255   -0.5300
      7 N7         -6.7004    1.9753   56.3692 N.am    1  ZINC001065334255   -0.7300
      8 C8         -8.1286    2.1529   56.6430 C.3     1  ZINC001065334255    0.1300
      9 C9         -8.8714    0.8496   56.3420 C.3     1  ZINC001065334255    0.0700
     10 H10        -8.2704    0.0030   56.6740 H       1  ZINC001065334255    0.0700
     11 C11       -10.2152    0.8440   57.0796 C.3     1  ZINC001065334255    0.0800
     12 N12       -10.9871   -0.3249   56.6289 N.am    1  ZINC001065334255   -0.6100
     13 C13       -11.5416   -1.1742   57.5164 C.2     1  ZINC001065334255    0.5400
     14 O14       -11.4074   -0.9809   58.7062 O.2     1  ZINC001065334255   -0.5200
     15 C15       -12.3283   -2.3641   57.0305 C.3     1  ZINC001065334255   -0.1100
     16 H16       -11.7974   -2.8543   56.2145 H       1  ZINC001065334255    0.1200
     17 C17       -13.7228   -1.9167   56.5583 C.3     1  ZINC001065334255   -0.1000
     18 C18       -14.6129   -3.1646   56.3935 C.3     1  ZINC001065334255   -0.5900
     19 S19       -13.9435   -4.3868   57.5784 S.o2    1  ZINC001065334255    2.3900
     20 O20       -14.8809   -4.5883   58.6272 O.2     1  ZINC001065334255   -0.9300
     21 O21       -13.4297   -5.5026   56.8642 O.2     1  ZINC001065334255   -0.9300
     22 C22       -12.5525   -3.3636   58.1944 C.3     1  ZINC001065334255   -0.5900
     23 C23       -11.1363   -0.5387   55.1808 C.3     1  ZINC001065334255    0.0600
     24 C24        -9.7476   -0.4659   54.5356 C.3     1  ZINC001065334255    0.0500
     25 O25        -9.1049    0.7469   54.9354 O.3     1  ZINC001065334255   -0.3700
     26 H26        -4.0979    5.0675   53.9042 H       1  ZINC001065334255    0.0600
     27 H27        -5.3649    4.9244   55.1462 H       1  ZINC001065334255    0.0500
     28 H28        -3.6842    5.2635   55.6243 H       1  ZINC001065334255    0.0600
     29 H29        -4.6777    2.6917   54.3144 H       1  ZINC001065334255    0.0800
     30 H30        -1.9409    3.4868   55.4075 H       1  ZINC001065334255    0.0500
     31 H31        -2.3799    1.8819   54.7750 H       1  ZINC001065334255    0.0700
     32 H32        -2.3548    3.2908   53.6874 H       1  ZINC001065334255    0.0500
     33 H33        -4.0921    1.6967   56.5380 H       1  ZINC001065334255    0.0900
     34 H34        -3.7702    3.3346   57.1561 H       1  ZINC001065334255    0.0900
     35 H35        -6.3871    1.1686   55.9308 H       1  ZINC001065334255    0.4000
     36 H36        -8.2675    2.4165   57.6914 H       1  ZINC001065334255    0.0900
     37 H37        -8.5229    2.9498   56.0126 H       1  ZINC001065334255    0.0800
     38 H38       -10.0440    0.7789   58.1541 H       1  ZINC001065334255    0.1100
     39 H39       -10.7639    1.7573   56.8495 H       1  ZINC001065334255    0.0900
     40 H40       -14.1630   -1.2477   57.2979 H       1  ZINC001065334255    0.1000
     41 H41       -13.6376   -1.3986   55.6032 H       1  ZINC001065334255    0.1000
     42 H42       -15.6478   -2.9265   56.6394 H       1  ZINC001065334255    0.1500
     43 H43       -14.5435   -3.5473   55.3753 H       1  ZINC001065334255    0.1400
     44 H44       -11.6648   -3.9752   58.3569 H       1  ZINC001065334255    0.1400
     45 H45       -12.8335   -2.8375   59.1066 H       1  ZINC001065334255    0.1500
     46 H46       -11.5751   -1.5196   54.9978 H       1  ZINC001065334255    0.1000
     47 H47       -11.7779    0.2353   54.7595 H       1  ZINC001065334255    0.0900
     48 H48        -9.1502   -1.3178   54.8605 H       1  ZINC001065334255    0.0600
     49 H49        -9.8489   -0.4837   53.4505 H       1  ZINC001065334255    0.1100
@<TRIPOS>BOND
     1     1     2    1
     2     1    26    1
     3     1    27    1
     4     1    28    1
     5     2     3    1
     6     2     4    1
     7     2    29    1
     8     3    30    1
     9     3    31    1
    10     3    32    1
    11     4     5    1
    12     4    33    1
    13     4    34    1
    14     5     6    2
    15     5     7   am
    16     7     8    1
    17     7    35    1
    18     8     9    1
    19     8    36    1
    20     8    37    1
    21     9    10    1
    22     9    25    1
    23     9    11    1
    24    11    12    1
    25    11    38    1
    26    11    39    1
    27    12    13   am
    28    12    23    1
    29    13    14    2
    30    13    15    1
    31    15    16    1
    32    15    22    1
    33    15    17    1
    34    17    18    1
    35    17    40    1
    36    17    41    1
    37    18    19    1
    38    18    42    1
    39    18    43    1
    40    19    20    2
    41    19    21    2
    42    19    22    1
    43    22    44    1
    44    22    45    1
    45    23    24    1
    46    23    46    1
    47    23    47    1
    48    24    25    1
    49    24    48    1
    50    24    49    1
@<TRIPOS>SUBSTRUCTURE
     1 ZINC001065334255        1 TEMP              0 ****  ****    0 ROOT


##########                                Name:    ZINC000191003171
##########                DOCK_Rotatable_Bonds:                   6
##########                         Heavy_Atoms:                  26
##########                    Molecular_Weight:             389.414
##########                DOCK_Rotatable_Bonds:                   6
##########                       Formal_Charge:          -0.0200002
##########                     HBond_Acceptors:                   8
##########                        HBond_Donors:                   1
##########                         Heavy_Atoms:                  26
##########                          Grid_Score:          -27.634600
##########                     Grid_vdw_energy:          -27.346304
##########                      Grid_es_energy:           -0.288296
##########           Internal_energy_repulsive:           14.529814

@<TRIPOS>MOLECULE
ZINC000191003171
 45 46 1 0 0
SMALL
USER_CHARGES


@<TRIPOS>ATOM
      1 C1         -1.2430    3.4452   56.0737 C.3     1  ZINC000191003171   -0.1200
      2 C2         -2.5948    3.3596   55.4130 C.ar    1  ZINC000191003171   -0.0800
      3 C3         -3.7242    3.1332   56.1768 C.ar    1  ZINC000191003171   -0.0700
      4 C4         -4.9644    3.0546   55.5706 C.ar    1  ZINC000191003171   -0.1800
      5 C5         -6.1958    2.8073   56.4034 C.3     1  ZINC000191003171    0.5100
      6 F6         -5.9381    1.7872   57.3254 F       1  ZINC000191003171   -0.1800
      7 F7         -6.5391    3.9784   57.0874 F       1  ZINC000191003171   -0.1800
      8 F8         -7.2534    2.4268   55.5703 F       1  ZINC000191003171   -0.1800
      9 C9         -5.0748    3.2034   54.2010 C.ar    1  ZINC000191003171   -0.0800
     10 C10        -3.9451    3.4303   53.4370 C.ar    1  ZINC000191003171   -0.1000
     11 C11        -2.7058    3.5132   54.0435 C.ar    1  ZINC000191003171   -0.0500
     12 C12        -1.4744    3.7605   53.2107 C.3     1  ZINC000191003171    0.0900
     13 N13        -1.8284    4.5810   52.0448 N.3     1  ZINC000191003171   -0.6800
     14 C14        -0.6960    4.6918   51.1156 C.3     1  ZINC000191003171    0.1200
     15 H15         0.2368    4.7038   51.6794 H       1  ZINC000191003171    0.0600
     16 C16        -0.8218    5.9868   50.3104 C.3     1  ZINC000191003171   -0.1400
     17 C17        -0.7000    3.5137   50.1761 C.ar    1  ZINC000191003171   -0.0100
     18 C18         0.4954    2.9717   49.7424 C.ar    1  ZINC000191003171   -0.1300
     19 C19         0.4933    1.8907   48.8804 C.ar    1  ZINC000191003171    0.0100
     20 C20        -0.7041    1.3510   48.4512 C.ar    1  ZINC000191003171   -0.7000
     21 S21        -0.7064   -0.0266   47.3526 S.o2    1  ZINC000191003171    2.5000
     22 C22        -1.3287    0.6444   45.7864 C.3     1  ZINC000191003171   -0.6500
     23 O23         0.6643   -0.3819   47.2333 O.2     1  ZINC000191003171   -0.9300
     24 O24        -1.6494   -0.9256   47.9197 O.2     1  ZINC000191003171   -0.9300
     25 C25        -1.9023    1.8927   48.8853 C.ar    1  ZINC000191003171    0.1900
     26 F26        -3.0737    1.3658   48.4664 F       1  ZINC000191003171   -0.1200
     27 C27        -1.8989    2.9718   49.7526 C.ar    1  ZINC000191003171   -0.1700
     28 H28        -1.0417    4.4784   56.3566 H       1  ZINC000191003171    0.0800
     29 H29        -1.2332    2.8163   56.9639 H       1  ZINC000191003171    0.0800
     30 H30        -0.4765    3.1029   55.3785 H       1  ZINC000191003171    0.0600
     31 H31        -3.6380    3.0173   57.2471 H       1  ZINC000191003171    0.1400
     32 H32        -6.0434    3.1420   53.7275 H       1  ZINC000191003171    0.1400
     33 H33        -4.0313    3.5463   52.3667 H       1  ZINC000191003171    0.1400
     34 H34        -0.7293    4.2833   53.8102 H       1  ZINC000191003171    0.0900
     35 H35        -1.0662    2.8076   52.8739 H       1  ZINC000191003171    0.0500
     36 H36        -2.6442    4.2137   51.5784 H       1  ZINC000191003171    0.3500
     37 H37         0.0184    6.0690   49.6210 H       1  ZINC000191003171    0.0600
     38 H38        -1.7546    5.9748   49.7466 H       1  ZINC000191003171    0.0700
     39 H39        -0.8189    6.8389   50.9901 H       1  ZINC000191003171    0.0600
     40 H40         1.4317    3.3932   50.0770 H       1  ZINC000191003171    0.1500
     41 H41         1.4279    1.4683   48.5419 H       1  ZINC000191003171    0.1600
     42 H42        -0.6657    1.4383   45.4422 H       1  ZINC000191003171    0.1300
     43 H43        -1.3638   -0.1487   45.0396 H       1  ZINC000191003171    0.1400
     44 H44        -2.3305    1.0471   45.9361 H       1  ZINC000191003171    0.1300
     45 H45        -2.8328    3.3949   50.0921 H       1  ZINC000191003171    0.1500
@<TRIPOS>BOND
     1     1     2    1
     2     1    28    1
     3     1    29    1
     4     1    30    1
     5     2    11   ar
     6     2     3   ar
     7     3     4   ar
     8     3    31    1
     9     4     5    1
    10     4     9   ar
    11     5     6    1
    12     5     7    1
    13     5     8    1
    14     9    10   ar
    15     9    32    1
    16    10    11   ar
    17    10    33    1
    18    11    12    1
    19    12    13    1
    20    12    34    1
    21    12    35    1
    22    13    14    1
    23    13    36    1
    24    14    15    1
    25    14    16    1
    26    14    17    1
    27    16    37    1
    28    16    38    1
    29    16    39    1
    30    17    27   ar
    31    17    18   ar
    32    18    19   ar
    33    18    40    1
    34    19    20   ar
    35    19    41    1
    36    20    21    1
    37    20    25   ar
    38    21    22    1
    39    21    23    2
    40    21    24    2
    41    22    42    1
    42    22    43    1
    43    22    44    1
    44    25    26    1
    45    25    27   ar
    46    27    45    1
@<TRIPOS>SUBSTRUCTURE
     1 ZINC000191003171        1 TEMP              0 ****  ****    0 ROOT


##########                                Name:    ZINC001179023006
##########                DOCK_Rotatable_Bonds:                   3
##########                         Heavy_Atoms:                  25
##########                    Molecular_Weight:             340.465
##########                DOCK_Rotatable_Bonds:                   3
##########                       Formal_Charge:          -0.0100005
##########                     HBond_Acceptors:                   4
##########                        HBond_Donors:                   1
##########                         Heavy_Atoms:                  25
##########                          Grid_Score:          -27.598715
##########                     Grid_vdw_energy:          -25.879414
##########                      Grid_es_energy:           -1.719302
##########           Internal_energy_repulsive:           28.851032

@<TRIPOS>MOLECULE
ZINC001179023006
 53 56 1 0 0
SMALL
USER_CHARGES


@<TRIPOS>ATOM
      1 C1        -13.6091   -4.9097   57.3619 C.3     1  ZINC001179023006   -0.1500
      2 C2        -13.3122   -3.4578   56.9820 C.3     1  ZINC001179023006   -0.1100
      3 C3        -14.1099   -2.5197   57.8900 C.3     1  ZINC001179023006   -0.1100
      4 C4        -13.7570   -2.6751   59.3467 C.2     1  ZINC001179023006    0.5400
      5 O5        -14.5692   -3.1338   60.1219 O.2     1  ZINC001179023006   -0.5400
      6 N6        -12.5386   -2.3047   59.7883 N.am    1  ZINC001179023006   -0.5900
      7 C7        -12.1812   -2.4444   61.2064 C.3     1  ZINC001179023006    0.1000
      8 C8        -11.6761   -1.1011   61.7280 C.3     1  ZINC001179023006   -0.1200
      9 C9        -10.5195   -0.6155   60.8423 C.3     1  ZINC001179023006   -0.0500
     10 C10       -11.0492   -0.4083   59.4156 C.3     1  ZINC001179023006   -0.1100
     11 C11       -11.5433   -1.7477   58.8622 C.3     1  ZINC001179023006    0.0900
     12 C12       -10.0075    0.7124   61.3777 C.3     1  ZINC001179023006   -0.0800
     13 C13        -9.5811    0.6039   62.8098 C.ar    1  ZINC001179023006   -0.0700
     14 C14       -10.3813    1.1861   63.7877 C.ar    1  ZINC001179023006   -0.1100
     15 C15       -10.0488    1.0501   65.1211 C.ar    1  ZINC001179023006   -0.1100
     16 C16        -8.9223    0.3386   65.4889 C.ar    1  ZINC001179023006   -0.1200
     17 C17        -8.1206   -0.2272   64.5135 C.ar    1  ZINC001179023006   -0.1000
     18 C18        -8.4592   -0.0762   63.1805 C.ar    1  ZINC001179023006   -0.1100
     19 C19        -7.5740   -0.6661   62.1124 C.3     1  ZINC001179023006    0.1400
     20 N20        -8.2580   -1.6961   61.3625 N.am    1  ZINC001179023006   -0.7000
     21 C21        -9.4476   -1.6591   60.8196 C.2     1  ZINC001179023006    0.5200
     22 O22        -9.7338   -2.6507   60.1828 O.2     1  ZINC001179023006   -0.5500
     23 C23       -15.6233   -2.5381   57.6175 C.3     1  ZINC001179023006   -0.1200
     24 C24       -15.5983   -1.0131   57.8270 C.3     1  ZINC001179023006   -0.1400
     25 C25       -14.1185   -1.0584   57.4108 C.3     1  ZINC001179023006   -0.1300
     26 H26       -13.0118   -5.5772   56.7407 H       1  ZINC001179023006    0.0600
     27 H27       -13.3595   -5.0692   58.4109 H       1  ZINC001179023006    0.0500
     28 H28       -14.6676   -5.1173   57.2047 H       1  ZINC001179023006    0.0600
     29 H29       -13.5977   -3.2882   55.9438 H       1  ZINC001179023006    0.0700
     30 H30       -12.2469   -3.2612   57.1025 H       1  ZINC001179023006    0.0700
     31 H31       -13.0591   -2.7491   61.7760 H       1  ZINC001179023006    0.0900
     32 H32       -11.3962   -3.1930   61.3133 H       1  ZINC001179023006    0.0800
     33 H33       -11.3258   -1.2160   62.7537 H       1  ZINC001179023006    0.0800
     34 H34       -12.4869   -0.3732   61.6995 H       1  ZINC001179023006    0.0800
     35 H35       -10.2491   -0.0255   58.7821 H       1  ZINC001179023006    0.0800
     36 H36       -11.8732    0.3050   59.4323 H       1  ZINC001179023006    0.0800
     37 H37       -10.7039   -2.4369   58.7701 H       1  ZINC001179023006    0.1200
     38 H38       -12.0002   -1.5929   57.8847 H       1  ZINC001179023006    0.0800
     39 H39        -9.1567    1.0339   60.7768 H       1  ZINC001179023006    0.0800
     40 H40       -10.7993    1.4572   61.2979 H       1  ZINC001179023006    0.0900
     41 H41       -11.2618    1.7435   63.5043 H       1  ZINC001179023006    0.1200
     42 H42       -10.6712    1.5017   65.8794 H       1  ZINC001179023006    0.1200
     43 H43        -8.6694    0.2247   66.5327 H       1  ZINC001179023006    0.1300
     44 H44        -7.2368   -0.7825   64.7906 H       1  ZINC001179023006    0.1300
     45 H45        -6.6887   -1.0959   62.5812 H       1  ZINC001179023006    0.0900
     46 H46        -7.2646    0.1252   61.4295 H       1  ZINC001179023006    0.0800
     47 H47        -7.7692   -2.5260   61.2467 H       1  ZINC001179023006    0.4000
     48 H48       -15.8803   -2.8350   56.6007 H       1  ZINC001179023006    0.0900
     49 H49       -16.1966   -3.0743   58.3738 H       1  ZINC001179023006    0.0800
     50 H50       -15.7512   -0.7136   58.8638 H       1  ZINC001179023006    0.0800
     51 H51       -16.2312   -0.4639   57.1300 H       1  ZINC001179023006    0.0700
     52 H52       -13.4788   -0.4018   58.0005 H       1  ZINC001179023006    0.0700
     53 H53       -13.9633   -0.9500   56.3374 H       1  ZINC001179023006    0.0900
@<TRIPOS>BOND
     1     1     2    1
     2     1    26    1
     3     1    27    1
     4     1    28    1
     5     2     3    1
     6     2    29    1
     7     2    30    1
     8     3    25    1
     9     3     4    1
    10     3    23    1
    11     4     5    2
    12     4     6   am
    13     6    11    1
    14     6     7    1
    15     7     8    1
    16     7    31    1
    17     7    32    1
    18     8     9    1
    19     8    33    1
    20     8    34    1
    21     9    21    1
    22     9    10    1
    23     9    12    1
    24    10    11    1
    25    10    35    1
    26    10    36    1
    27    11    37    1
    28    11    38    1
    29    12    13    1
    30    12    39    1
    31    12    40    1
    32    13    18   ar
    33    13    14   ar
    34    14    15   ar
    35    14    41    1
    36    15    16   ar
    37    15    42    1
    38    16    17   ar
    39    16    43    1
    40    17    18   ar
    41    17    44    1
    42    18    19    1
    43    19    20    1
    44    19    45    1
    45    19    46    1
    46    20    21   am
    47    20    47    1
    48    21    22    2
    49    23    24    1
    50    23    48    1
    51    23    49    1
    52    24    25    1
    53    24    50    1
    54    24    51    1
    55    25    52    1
    56    25    53    1
@<TRIPOS>SUBSTRUCTURE
     1 ZINC001179023006        1 TEMP              0 ****  ****    0 ROOT


##########                                Name:    ZINC000187810810
##########                DOCK_Rotatable_Bonds:                   7
##########                         Heavy_Atoms:                  27
##########                    Molecular_Weight:             386.414
##########                DOCK_Rotatable_Bonds:                   7
##########                       Formal_Charge:           0.0599998
##########                     HBond_Acceptors:                   8
##########                        HBond_Donors:                   1
##########                         Heavy_Atoms:                  27
##########                          Grid_Score:          -27.570246
##########                     Grid_vdw_energy:          -25.546240
##########                      Grid_es_energy:           -2.024005
##########           Internal_energy_repulsive:           41.705650

@<TRIPOS>MOLECULE
ZINC000187810810
 52 53 1 0 0
SMALL
USER_CHARGES


@<TRIPOS>ATOM
      1 C1          1.4546    1.6686   45.6735 C.3     1  ZINC000187810810   -0.1800
      2 C2          0.0312    1.3275   46.1192 C.3     1  ZINC000187810810    0.1400
      3 C3         -0.7492    0.7506   44.9365 C.3     1  ZINC000187810810   -0.1800
      4 C4          0.0838    0.2957   47.2477 C.3     1  ZINC000187810810   -0.1400
      5 O5         -0.6286    2.5307   46.5938 O.3     1  ZINC000187810810   -0.3600
      6 C6         -1.6130    2.3717   47.4985 C.2     1  ZINC000187810810    0.6500
      7 O7         -2.6466    1.8176   47.1804 O.2     1  ZINC000187810810   -0.5600
      8 N8         -1.4521    2.8271   48.7566 N.am    1  ZINC000187810810   -0.6000
      9 C9         -2.5142    2.6540   49.7570 C.3     1  ZINC000187810810    0.1100
     10 C10        -2.8439    4.0198   50.3675 C.3     1  ZINC000187810810   -0.1400
     11 C11        -1.5622    4.6523   50.9146 C.3     1  ZINC000187810810    0.1800
     12 C12        -1.8932    6.0014   51.5560 C.3     1  ZINC000187810810   -0.1600
     13 N13        -0.9711    3.7658   51.9200 N.am    1  ZINC000187810810   -0.7100
     14 C14         0.1515    4.1355   52.5678 C.2     1  ZINC000187810810    0.5500
     15 O15         0.6743    5.2038   52.3169 O.2     1  ZINC000187810810   -0.5100
     16 C16         0.7471    3.2416   53.5838 C.ar    1  ZINC000187810810   -0.0900
     17 C17         1.9765    2.6268   53.3420 C.ar    1  ZINC000187810810   -0.0900
     18 C18         2.5270    1.7940   54.2945 C.ar    1  ZINC000187810810   -0.0900
     19 C19         1.8629    1.5676   55.4868 C.ar    1  ZINC000187810810   -0.0900
     20 C20         0.6434    2.1738   55.7325 C.ar    1  ZINC000187810810   -0.0800
     21 C21         0.0850    3.0134   54.7913 C.ar    1  ZINC000187810810   -0.1300
     22 C22        -1.2429    3.6730   55.0608 C.3     1  ZINC000187810810    0.5200
     23 F23        -1.5732    3.5215   56.4118 F       1  ZINC000187810810   -0.1800
     24 F24        -1.1586    5.0348   54.7512 F       1  ZINC000187810810   -0.1600
     25 F25        -2.2297    3.0752   54.2696 F       1  ZINC000187810810   -0.1600
     26 C26        -0.5665    4.8619   49.7714 C.3     1  ZINC000187810810   -0.1500
     27 C27        -0.2088    3.5007   49.1557 C.3     1  ZINC000187810810    0.1300
     28 H28         1.4173    2.4036   44.8695 H       1  ZINC000187810810    0.0900
     29 H29         2.0106    2.0795   46.5161 H       1  ZINC000187810810    0.0600
     30 H30         1.9500    0.7653   45.3172 H       1  ZINC000187810810    0.0700
     31 H31        -0.2538   -0.1526   44.5802 H       1  ZINC000187810810    0.0700
     32 H32        -1.7632    0.5075   45.2541 H       1  ZINC000187810810    0.0600
     33 H33        -0.7865    1.4857   44.1325 H       1  ZINC000187810810    0.0900
     34 H34         0.6397    0.7068   48.0904 H       1  ZINC000187810810    0.0700
     35 H35        -0.9303    0.0528   47.5653 H       1  ZINC000187810810    0.0700
     36 H36         0.5791   -0.6075   46.8914 H       1  ZINC000187810810    0.0800
     37 H37        -3.4033    2.2433   49.2786 H       1  ZINC000187810810    0.1000
     38 H38        -2.1720    1.9769   50.5397 H       1  ZINC000187810810    0.0700
     39 H39        -3.2709    4.6671   49.6015 H       1  ZINC000187810810    0.0900
     40 H40        -3.5613    3.8923   51.1780 H       1  ZINC000187810810    0.0900
     41 H41        -2.6014    5.8521   52.3710 H       1  ZINC000187810810    0.0600
     42 H42        -0.9805    6.4522   51.9457 H       1  ZINC000187810810    0.0800
     43 H43        -2.3335    6.6610   50.8082 H       1  ZINC000187810810    0.0700
     44 H44        -1.3876    2.9128   52.1194 H       1  ZINC000187810810    0.4000
     45 H45         2.4955    2.8022   52.4113 H       1  ZINC000187810810    0.1400
     46 H46         3.4782    1.3176   54.1086 H       1  ZINC000187810810    0.1400
     47 H47         2.2979    0.9146   56.2288 H       1  ZINC000187810810    0.1400
     48 H48         0.1299    1.9925   56.6652 H       1  ZINC000187810810    0.1500
     49 H49        -1.0150    5.5014   49.0110 H       1  ZINC000187810810    0.0800
     50 H50         0.3369    5.3339   50.1577 H       1  ZINC000187810810    0.1000
     51 H51         0.3215    2.8952   49.8908 H       1  ZINC000187810810    0.0700
     52 H52         0.4218    3.6505   48.2793 H       1  ZINC000187810810    0.1000
@<TRIPOS>BOND
     1     1     2    1
     2     1    28    1
     3     1    29    1
     4     1    30    1
     5     2     3    1
     6     2     4    1
     7     2     5    1
     8     3    31    1
     9     3    32    1
    10     3    33    1
    11     4    34    1
    12     4    35    1
    13     4    36    1
    14     5     6    1
    15     6     7    2
    16     6     8   am
    17     8    27    1
    18     8     9    1
    19     9    10    1
    20     9    37    1
    21     9    38    1
    22    10    11    1
    23    10    39    1
    24    10    40    1
    25    11    12    1
    26    11    13    1
    27    11    26    1
    28    12    41    1
    29    12    42    1
    30    12    43    1
    31    13    14   am
    32    13    44    1
    33    14    15    2
    34    14    16    1
    35    16    21   ar
    36    16    17   ar
    37    17    18   ar
    38    17    45    1
    39    18    19   ar
    40    18    46    1
    41    19    20   ar
    42    19    47    1
    43    20    21   ar
    44    20    48    1
    45    21    22    1
    46    22    23    1
    47    22    24    1
    48    22    25    1
    49    26    27    1
    50    26    49    1
    51    26    50    1
    52    27    51    1
    53    27    52    1
@<TRIPOS>SUBSTRUCTURE
     1 ZINC000187810810        1 TEMP              0 ****  ****    0 ROOT


##########                                Name:    ZINC000566738344
##########                DOCK_Rotatable_Bonds:                   5
##########                         Heavy_Atoms:                  23
##########                    Molecular_Weight:             352.478
##########                DOCK_Rotatable_Bonds:                   5
##########                       Formal_Charge:           0.0100005
##########                     HBond_Acceptors:                   7
##########                        HBond_Donors:                   0
##########                         Heavy_Atoms:                  23
##########                          Grid_Score:          -27.563145
##########                     Grid_vdw_energy:          -25.237127
##########                      Grid_es_energy:           -2.326017
##########           Internal_energy_repulsive:           25.659445

@<TRIPOS>MOLECULE
ZINC000566738344
 43 44 1 0 0
SMALL
USER_CHARGES


@<TRIPOS>ATOM
      1 C1         -0.7228    4.0172   46.8104 C.3     1  ZINC000566738344   -0.1300
      2 C2         -1.5018    3.5307   48.0052 C.ar    1  ZINC000566738344   -0.0100
      3 C3         -2.0270    4.4349   48.8995 C.ar    1  ZINC000566738344   -0.1000
      4 C4         -2.7466    3.9861   50.0042 C.ar    1  ZINC000566738344   -0.0500
      5 S5         -3.4170    5.1472   51.1475 S.3     1  ZINC000566738344   -0.0300
      6 C6         -2.3709    4.9276   52.6131 C.3     1  ZINC000566738344   -0.1200
      7 H7         -1.5900    4.1988   52.3962 H       1  ZINC000566738344    0.1200
      8 C8         -1.7301    6.2655   52.9875 C.3     1  ZINC000566738344   -0.1300
      9 C9         -3.2127    4.4348   53.7619 C.2     1  ZINC000566738344    0.5200
     10 O10        -4.4222    4.4961   53.6973 O.2     1  ZINC000566738344   -0.5000
     11 N11        -2.6215    3.9260   54.8610 N.am    1  ZINC000566738344   -0.6000
     12 C12        -1.1604    3.8537   54.9397 C.3     1  ZINC000566738344    0.0600
     13 C13        -3.4398    3.4454   55.9770 C.3     1  ZINC000566738344    0.1500
     14 H14        -2.7937    3.0602   56.7658 H       1  ZINC000566738344    0.1300
     15 C15        -4.2948    4.6008   56.5266 C.3     1  ZINC000566738344   -0.1300
     16 C16        -5.3567    3.9622   57.4587 C.3     1  ZINC000566738344   -0.5900
     17 S17        -5.8880    2.4885   56.5071 S.o2    1  ZINC000566738344    2.4000
     18 O18        -5.9875    1.3736   57.3824 O.2     1  ZINC000566738344   -0.9300
     19 O19        -6.9868    2.8358   55.6757 O.2     1  ZINC000566738344   -0.9300
     20 C20        -4.3811    2.3277   55.4859 C.3     1  ZINC000566738344   -0.6200
     21 C21        -2.9377    2.6219   50.2070 C.ar    1  ZINC000566738344   -0.1400
     22 C22        -2.4150    1.7125   49.3162 C.ar    1  ZINC000566738344   -0.0400
     23 C23        -1.6966    2.1600   48.2033 C.ar    1  ZINC000566738344   -0.0400
     24 C24        -1.1513    1.2163   47.2743 C.1     1  ZINC000566738344    0.2500
     25 N25        -0.7187    0.4677   46.5374 N.1     1  ZINC000566738344   -0.4100
     26 H26        -1.4032    4.1787   45.9744 H       1  ZINC000566738344    0.0800
     27 H27        -0.2238    4.9538   47.0589 H       1  ZINC000566738344    0.0800
     28 H28         0.0219    3.2708   46.5339 H       1  ZINC000566738344    0.0700
     29 H29        -1.8807    5.4937   48.7448 H       1  ZINC000566738344    0.1400
     30 H30        -2.5065    6.9682   53.2901 H       1  ZINC000566738344    0.0800
     31 H31        -1.0335    6.1165   53.8126 H       1  ZINC000566738344    0.0800
     32 H32        -1.1938    6.6650   52.1269 H       1  ZINC000566738344    0.0900
     33 H33        -0.7743    4.7730   55.3803 H       1  ZINC000566738344    0.0700
     34 H34        -0.8716    3.0047   55.5592 H       1  ZINC000566738344    0.0800
     35 H35        -0.7482    3.7297   53.9383 H       1  ZINC000566738344    0.0800
     36 H36        -3.6695    5.2919   57.0918 H       1  ZINC000566738344    0.1100
     37 H37        -4.7850    5.1253   55.7066 H       1  ZINC000566738344    0.0900
     38 H38        -4.9111    3.6690   58.4092 H       1  ZINC000566738344    0.1400
     39 H39        -6.1931    4.6433   57.6161 H       1  ZINC000566738344    0.1400
     40 H40        -4.6212    2.4688   54.4321 H       1  ZINC000566738344    0.1400
     41 H41        -3.9200    1.3525   55.6426 H       1  ZINC000566738344    0.1500
     42 H42        -3.4966    2.2771   51.0645 H       1  ZINC000566738344    0.1200
     43 H43        -2.5632    0.6544   49.4742 H       1  ZINC000566738344    0.1400
@<TRIPOS>BOND
     1     1     2    1
     2     1    26    1
     3     1    27    1
     4     1    28    1
     5     2    23   ar
     6     2     3   ar
     7     3     4   ar
     8     3    29    1
     9     4     5    1
    10     4    21   ar
    11     5     6    1
    12     6     7    1
    13     6     8    1
    14     6     9    1
    15     8    30    1
    16     8    31    1
    17     8    32    1
    18     9    10    2
    19     9    11   am
    20    11    12    1
    21    11    13    1
    22    12    33    1
    23    12    34    1
    24    12    35    1
    25    13    14    1
    26    13    20    1
    27    13    15    1
    28    15    16    1
    29    15    36    1
    30    15    37    1
    31    16    17    1
    32    16    38    1
    33    16    39    1
    34    17    18    2
    35    17    19    2
    36    17    20    1
    37    20    40    1
    38    20    41    1
    39    21    22   ar
    40    21    42    1
    41    22    23   ar
    42    22    43    1
    43    23    24    1
    44    24    25    3
@<TRIPOS>SUBSTRUCTURE
     1 ZINC000566738344        1 TEMP              0 ****  ****    0 ROOT


##########                                Name:    ZINC000252489163
##########                DOCK_Rotatable_Bonds:                   6
##########                         Heavy_Atoms:                  25
##########                    Molecular_Weight:             379.403
##########                DOCK_Rotatable_Bonds:                   6
##########                       Formal_Charge:          0.00999963
##########                     HBond_Acceptors:                  10
##########                        HBond_Donors:                   2
##########                         Heavy_Atoms:                  25
##########                          Grid_Score:          -27.515003
##########                     Grid_vdw_energy:          -25.581825
##########                      Grid_es_energy:           -1.933177
##########           Internal_energy_repulsive:           21.329424

@<TRIPOS>MOLECULE
ZINC000252489163
 45 46 1 0 0
SMALL
USER_CHARGES


@<TRIPOS>ATOM
      1 C1         -0.9802    4.7707   46.3477 C.3     1  ZINC000252489163   -0.1100
      2 C2         -1.1478    3.6789   47.3729 C.ar    1  ZINC000252489163   -0.0600
      3 C3         -1.6716    3.9745   48.6159 C.ar    1  ZINC000252489163   -0.1300
      4 C4         -1.8262    2.9677   49.5600 C.ar    1  ZINC000252489163    0.1700
      5 N5         -2.3572    3.2638   50.8205 N.am    1  ZINC000252489163   -0.6800
      6 C6         -1.5648    3.7785   51.7816 C.2     1  ZINC000252489163    0.7100
      7 O7         -0.3886    3.9854   51.5536 O.2     1  ZINC000252489163   -0.5500
      8 N8         -2.0763    4.0637   52.9955 N.am    1  ZINC000252489163   -0.6200
      9 C9         -1.2252    4.6250   54.0535 C.3     1  ZINC000252489163    0.1000
     10 C10        -1.3545    3.7519   55.3055 C.3     1  ZINC000252489163   -0.1400
     11 C11        -2.8317    3.6289   55.6863 C.3     1  ZINC000252489163   -0.1300
     12 C12        -3.5997    2.9556   54.5466 C.3     1  ZINC000252489163    0.1400
     13 H13        -3.1715    1.9726   54.3503 H       1  ZINC000252489163    0.0900
     14 N14        -5.0074    2.8092   54.9250 N.am    1  ZINC000252489163   -1.1100
     15 S15        -6.1945    2.9904   53.7847 S.o2    1  ZINC000252489163    2.6100
     16 C16        -7.7410    2.7262   54.6952 C.3     1  ZINC000252489163   -0.6700
     17 O17        -6.0826    4.3464   53.3749 O.2     1  ZINC000252489163   -0.9500
     18 O18        -5.9667    1.9273   52.8697 O.2     1  ZINC000252489163   -0.9500
     19 C19        -3.4970    3.8250   53.2841 C.3     1  ZINC000252489163    0.1100
     20 C20        -1.4531    1.6666   49.2505 C.ar    1  ZINC000252489163   -0.1000
     21 C21        -0.9296    1.3774   48.0053 C.ar    1  ZINC000252489163   -0.1600
     22 C22        -0.5243   -0.0345   47.6685 C.3     1  ZINC000252489163    0.5100
     23 F23        -1.1729   -0.9242   48.5316 F       1  ZINC000252489163   -0.1700
     24 F24        -0.8844   -0.3204   46.3472 F       1  ZINC000252489163   -0.1800
     25 F25         0.8605   -0.1695   47.8141 F       1  ZINC000252489163   -0.1800
     26 C26        -0.7819    2.3810   47.0658 C.ar    1  ZINC000252489163   -0.0900
     27 H27        -1.8880    4.8498   45.7495 H       1  ZINC000252489163    0.0800
     28 H28        -0.7945    5.7183   46.8531 H       1  ZINC000252489163    0.0700
     29 H29        -0.1370    4.5336   45.6989 H       1  ZINC000252489163    0.0700
     30 H30        -1.9606    4.9875   48.8538 H       1  ZINC000252489163    0.1300
     31 H31        -3.2956    3.0987   51.0024 H       1  ZINC000252489163    0.4100
     32 H32        -0.1873    4.6350   53.7206 H       1  ZINC000252489163    0.0800
     33 H33        -1.5478    5.6409   54.2814 H       1  ZINC000252489163    0.0800
     34 H34        -0.9476    2.7615   55.1020 H       1  ZINC000252489163    0.0700
     35 H35        -0.8040    4.2103   56.1271 H       1  ZINC000252489163    0.0900
     36 H36        -2.9246    3.0284   56.5913 H       1  ZINC000252489163    0.0800
     37 H37        -3.2445    4.6217   55.8656 H       1  ZINC000252489163    0.0800
     38 H38        -5.2440    2.6059   55.8435 H       1  ZINC000252489163    0.4200
     39 H39        -7.8249    3.4662   55.4912 H       1  ZINC000252489163    0.1300
     40 H40        -8.5857    2.8281   54.0140 H       1  ZINC000252489163    0.1300
     41 H41        -7.7417    1.7258   55.1278 H       1  ZINC000252489163    0.1300
     42 H42        -4.0059    4.7741   53.4517 H       1  ZINC000252489163    0.0800
     43 H43        -3.9569    3.3048   52.4439 H       1  ZINC000252489163    0.1100
     44 H44        -1.5716    0.8816   49.9827 H       1  ZINC000252489163    0.1800
     45 H45        -0.3728    2.1523   46.0928 H       1  ZINC000252489163    0.1300
@<TRIPOS>BOND
     1     1     2    1
     2     1    27    1
     3     1    28    1
     4     1    29    1
     5     2    26   ar
     6     2     3   ar
     7     3     4   ar
     8     3    30    1
     9     4     5    1
    10     4    20   ar
    11     5     6   am
    12     5    31    1
    13     6     7    2
    14     6     8   am
    15     8    19    1
    16     8     9    1
    17     9    10    1
    18     9    32    1
    19     9    33    1
    20    10    11    1
    21    10    34    1
    22    10    35    1
    23    11    12    1
    24    11    36    1
    25    11    37    1
    26    12    13    1
    27    12    14    1
    28    12    19    1
    29    14    15   am
    30    14    38    1
    31    15    16    1
    32    15    17    2
    33    15    18    2
    34    16    39    1
    35    16    40    1
    36    16    41    1
    37    19    42    1
    38    19    43    1
    39    20    21   ar
    40    20    44    1
    41    21    22    1
    42    21    26   ar
    43    22    23    1
    44    22    24    1
    45    22    25    1
    46    26    45    1
@<TRIPOS>SUBSTRUCTURE
     1 ZINC000252489163        1 TEMP              0 ****  ****    0 ROOT


##########                                Name:    ZINC000914736341
##########                DOCK_Rotatable_Bonds:                   7
##########                         Heavy_Atoms:                  27
##########                    Molecular_Weight:             384.905
##########                DOCK_Rotatable_Bonds:                   7
##########                       Formal_Charge:                0.02
##########                     HBond_Acceptors:                   5
##########                        HBond_Donors:                   1
##########                         Heavy_Atoms:                  27
##########                          Grid_Score:          -27.508297
##########                     Grid_vdw_energy:          -27.713015
##########                      Grid_es_energy:            0.204717
##########           Internal_energy_repulsive:           36.948154

@<TRIPOS>MOLECULE
ZINC000914736341
 52 54 1 0 0
SMALL
USER_CHARGES


@<TRIPOS>ATOM
      1 C1          4.1962    6.9903   44.9829 C.3     1  ZINC000914736341   -0.1400
      2 C2          3.3454    5.7238   44.8684 C.3     1  ZINC000914736341   -0.0300
      3 C3          3.2767    5.2861   43.4040 C.3     1  ZINC000914736341   -0.1400
      4 C4          3.9759    4.6087   45.7050 C.3     1  ZINC000914736341    0.1300
      5 N5          3.1614    3.3959   45.5956 N.am    1  ZINC000914736341   -0.7200
      6 C6          3.3962    2.5136   44.6042 C.2     1  ZINC000914736341    0.5300
      7 O7          4.2808    2.7244   43.8018 O.2     1  ZINC000914736341   -0.5300
      8 C8          2.5595    1.2652   44.4927 C.3     1  ZINC000914736341   -0.1200
      9 H9          3.0383    0.4302   45.0042 H       1  ZINC000914736341    0.1200
     10 C10         2.2769    0.9188   43.0124 C.3     1  ZINC000914736341   -0.1400
     11 C11         0.8600    0.3887   43.0195 C.2     1  ZINC000914736341    0.5200
     12 O12         0.3524   -0.2486   42.1210 O.2     1  ZINC000914736341   -0.5200
     13 N13         0.2458    0.7263   44.1664 N.am    1  ZINC000914736341   -0.6100
     14 C14        -1.1331    0.3639   44.5033 C.3     1  ZINC000914736341    0.1600
     15 C15        -1.3423    0.5099   45.9886 C.ar    1  ZINC000914736341   -0.1000
     16 C16        -1.0871   -0.5558   46.8305 C.ar    1  ZINC000914736341   -0.0800
     17 C17        -1.2790   -0.4220   48.1931 C.ar    1  ZINC000914736341   -0.1100
     18 C18        -1.7268    0.7773   48.7141 C.ar    1  ZINC000914736341   -0.1000
     19 C19        -1.9825    1.8441   47.8730 C.ar    1  ZINC000914736341   -0.1100
     20 C20        -1.7847    1.7128   46.5102 C.ar    1  ZINC000914736341   -0.0300
     21 Cl21       -2.1056    3.0520   45.4532 Cl      1  ZINC000914736341   -0.0600
     22 C22         1.1344    1.5042   45.0388 C.3     1  ZINC000914736341    0.1000
     23 C23         1.9541    6.0058   45.3742 C.ar    1  ZINC000914736341   -0.0700
     24 C24         1.6526    5.8165   46.7098 C.ar    1  ZINC000914736341   -0.1200
     25 C25         0.3764    6.0752   47.1738 C.ar    1  ZINC000914736341   -0.1200
     26 C26        -0.5983    6.5236   46.3020 C.ar    1  ZINC000914736341   -0.1200
     27 C27        -0.2965    6.7138   44.9665 C.ar    1  ZINC000914736341   -0.1200
     28 C28         0.9809    6.4592   44.5034 C.ar    1  ZINC000914736341   -0.1100
     29 H29         3.7471    7.7848   44.3869 H       1  ZINC000914736341    0.0600
     30 H30         4.2451    7.3020   46.0261 H       1  ZINC000914736341    0.0600
     31 H31         5.2025    6.7863   44.6171 H       1  ZINC000914736341    0.0600
     32 H32         4.2831    5.0821   43.0382 H       1  ZINC000914736341    0.0600
     33 H33         2.6707    4.3838   43.3225 H       1  ZINC000914736341    0.0600
     34 H34         2.8276    6.0806   42.8080 H       1  ZINC000914736341    0.0600
     35 H35         4.9822    4.4047   45.3393 H       1  ZINC000914736341    0.0700
     36 H36         4.0248    4.9206   46.7483 H       1  ZINC000914736341    0.0700
     37 H37         2.4531    3.2279   46.2367 H       1  ZINC000914736341    0.4000
     38 H38         2.3470    1.8119   42.3915 H       1  ZINC000914736341    0.1100
     39 H39         2.9689    0.1534   42.6610 H       1  ZINC000914736341    0.1100
     40 H40        -1.8216    1.0218   43.9729 H       1  ZINC000914736341    0.1000
     41 H41        -1.3192   -0.6693   44.2100 H       1  ZINC000914736341    0.1000
     42 H42        -0.7379   -1.4934   46.4240 H       1  ZINC000914736341    0.1400
     43 H43        -1.0794   -1.2552   48.8508 H       1  ZINC000914736341    0.1300
     44 H44        -1.8773    0.8811   49.7786 H       1  ZINC000914736341    0.1300
     45 H45        -2.3323    2.7812   48.2801 H       1  ZINC000914736341    0.1400
     46 H46         1.0588    1.1496   46.0667 H       1  ZINC000914736341    0.1000
     47 H47         0.8832    2.5635   44.9850 H       1  ZINC000914736341    0.0900
     48 H48         2.4140    5.4662   47.3909 H       1  ZINC000914736341    0.1300
     49 H49         0.1407    5.9266   48.2172 H       1  ZINC000914736341    0.1200
     50 H50        -1.5956    6.7251   46.6643 H       1  ZINC000914736341    0.1200
     51 H51        -1.0580    7.0638   44.2854 H       1  ZINC000914736341    0.1200
     52 H52         1.2166    6.6079   43.4600 H       1  ZINC000914736341    0.1200
@<TRIPOS>BOND
     1     1     2    1
     2     1    29    1
     3     1    30    1
     4     1    31    1
     5     2     3    1
     6     2     4    1
     7     2    23    1
     8     3    32    1
     9     3    33    1
    10     3    34    1
    11     4     5    1
    12     4    35    1
    13     4    36    1
    14     5     6   am
    15     5    37    1
    16     6     7    2
    17     6     8    1
    18     8     9    1
    19     8    22    1
    20     8    10    1
    21    10    11    1
    22    10    38    1
    23    10    39    1
    24    11    12    2
    25    11    13   am
    26    13    14    1
    27    13    22    1
    28    14    15    1
    29    14    40    1
    30    14    41    1
    31    15    20   ar
    32    15    16   ar
    33    16    17   ar
    34    16    42    1
    35    17    18   ar
    36    17    43    1
    37    18    19   ar
    38    18    44    1
    39    19    20   ar
    40    19    45    1
    41    20    21    1
    42    22    46    1
    43    22    47    1
    44    23    28   ar
    45    23    24   ar
    46    24    25   ar
    47    24    48    1
    48    25    26   ar
    49    25    49    1
    50    26    27   ar
    51    26    50    1
    52    27    28   ar
    53    27    51    1
    54    28    52    1
@<TRIPOS>SUBSTRUCTURE
     1 ZINC000914736341        1 TEMP              0 ****  ****    0 ROOT


##########                                Name:    ZINC000942661662
##########                DOCK_Rotatable_Bonds:                   6
##########                         Heavy_Atoms:                  25
##########                    Molecular_Weight:             343.426
##########                DOCK_Rotatable_Bonds:                   6
##########                       Formal_Charge:           0.0399997
##########                     HBond_Acceptors:                   6
##########                        HBond_Donors:                   1
##########                         Heavy_Atoms:                  25
##########                          Grid_Score:          -27.457384
##########                     Grid_vdw_energy:          -26.518370
##########                      Grid_es_energy:           -0.939015
##########           Internal_energy_repulsive:           27.279249

@<TRIPOS>MOLECULE
ZINC000942661662
 50 52 1 0 0
SMALL
USER_CHARGES


@<TRIPOS>ATOM
      1 C1         -8.2407    3.0397   56.4291 C.3     1  ZINC000942661662   -0.1700
      2 C2         -8.2869    1.5782   55.9787 C.3     1  ZINC000942661662    0.1000
      3 N3         -9.6177    1.0269   56.2456 N.am    1  ZINC000942661662   -0.6000
      4 C4        -10.5251    0.9457   55.2524 C.2     1  ZINC000942661662    0.6000
      5 O5        -11.6298    0.4879   55.4740 O.2     1  ZINC000942661662   -0.5200
      6 C6        -10.1786    1.4117   53.8979 C.2     1  ZINC000942661662   -0.2400
      7 C7         -9.7740    0.6488   52.8418 C.2     1  ZINC000942661662    0.0700
      8 C8         -9.5983   -0.8478   52.8514 C.3     1  ZINC000942661662   -0.0900
      9 O9         -9.5600    1.4545   51.7971 O.3     1  ZINC000942661662   -0.1700
     10 C10        -9.8084    2.7334   52.1196 C.2     1  ZINC000942661662   -0.0300
     11 C11       -10.2028    2.7950   53.4007 C.2     1  ZINC000942661662   -0.1900
     12 C12        -9.9621    0.5637   57.5922 C.3     1  ZINC000942661662    0.1400
     13 H13       -10.5645    1.3057   58.1162 H       1  ZINC000942661662    0.1100
     14 C14        -8.6866    0.2103   58.4019 C.3     1  ZINC000942661662   -0.1400
     15 C15        -9.1985   -0.8365   59.4138 C.3     1  ZINC000942661662    0.1000
     16 N16       -10.4274   -1.4189   58.8551 N.am    1  ZINC000942661662   -0.6200
     17 C17       -11.1911   -2.3583   59.4475 C.2     1  ZINC000942661662    0.6100
     18 O18       -10.8807   -2.7945   60.5402 O.2     1  ZINC000942661662   -0.5200
     19 C19       -12.3964   -2.8547   58.7750 C.2     1  ZINC000942661662   -0.0600
     20 C20       -13.6870   -2.7773   59.2536 C.2     1  ZINC000942661662   -0.0700
     21 C21       -14.1220   -2.1686   60.5617 C.3     1  ZINC000942661662   -0.0900
     22 C22       -14.5165   -3.3695   58.2961 C.2     1  ZINC000942661662   -0.2100
     23 C23       -13.7354   -3.7891   57.2722 C.2     1  ZINC000942661662    0.0500
     24 C24       -14.2219   -4.4831   56.0260 C.3     1  ZINC000942661662   -0.0900
     25 N25       -12.4456   -3.4774   57.5483 N.pl3   1  ZINC000942661662   -0.5400
     26 C26       -10.6874   -0.8041   57.5402 C.3     1  ZINC000942661662    0.0900
     27 H27        -7.2505    3.4500   56.2305 H       1  ZINC000942661662    0.0700
     28 H28        -8.9881    3.6128   55.8805 H       1  ZINC000942661662    0.0600
     29 H29        -8.4504    3.0975   57.4972 H       1  ZINC000942661662    0.0600
     30 H30        -8.0771    1.5204   54.9107 H       1  ZINC000942661662    0.0900
     31 H31        -7.5395    1.0051   56.5273 H       1  ZINC000942661662    0.0800
     32 H32       -10.5348   -1.3254   52.5632 H       1  ZINC000942661662    0.0900
     33 H33        -8.8160   -1.1263   52.1453 H       1  ZINC000942661662    0.0900
     34 H34        -9.3171   -1.1742   53.8526 H       1  ZINC000942661662    0.1000
     35 H35        -9.7112    3.5776   51.4530 H       1  ZINC000942661662    0.2100
     36 H36       -10.4749    3.6808   53.9554 H       1  ZINC000942661662    0.1600
     37 H37        -7.9248   -0.2212   57.7527 H       1  ZINC000942661662    0.1000
     38 H38        -8.3017    1.0897   58.9183 H       1  ZINC000942661662    0.0900
     39 H39        -8.4488   -1.6154   59.5524 H       1  ZINC000942661662    0.0700
     40 H40        -9.4165   -0.3550   60.3670 H       1  ZINC000942661662    0.0700
     41 H41       -14.3438   -1.1116   60.4148 H       1  ZINC000942661662    0.0700
     42 H42       -15.0145   -2.6805   60.9217 H       1  ZINC000942661662    0.0600
     43 H43       -13.3223   -2.2735   61.2950 H       1  ZINC000942661662    0.0800
     44 H44       -15.5894   -3.4742   58.3617 H       1  ZINC000942661662    0.1400
     45 H45       -14.4557   -3.7397   55.2640 H       1  ZINC000942661662    0.0800
     46 H46       -13.4446   -5.1513   55.6553 H       1  ZINC000942661662    0.0700
     47 H47       -15.1170   -5.0602   56.2575 H       1  ZINC000942661662    0.0900
     48 H48       -11.6834   -3.6666   56.9790 H       1  ZINC000942661662    0.4100
     49 H49       -11.7580   -0.6617   57.3930 H       1  ZINC000942661662    0.0800
     50 H50       -10.2732   -1.4224   56.7438 H       1  ZINC000942661662    0.1000
@<TRIPOS>BOND
     1     1     2    1
     2     1    27    1
     3     1    28    1
     4     1    29    1
     5     2     3    1
     6     2    30    1
     7     2    31    1
     8     3     4   am
     9     3    12    1
    10     4     5    2
    11     4     6    1
    12     6    11    1
    13     6     7    2
    14     7     8    1
    15     7     9    1
    16     8    32    1
    17     8    33    1
    18     8    34    1
    19     9    10    1
    20    10    11    2
    21    10    35    1
    22    11    36    1
    23    12    13    1
    24    12    26    1
    25    12    14    1
    26    14    15    1
    27    14    37    1
    28    14    38    1
    29    15    16    1
    30    15    39    1
    31    15    40    1
    32    16    17   am
    33    16    26    1
    34    17    18    2
    35    17    19    1
    36    19    25    1
    37    19    20    2
    38    20    21    1
    39    20    22    1
    40    21    41    1
    41    21    42    1
    42    21    43    1
    43    22    23    2
    44    22    44    1
    45    23    24    1
    46    23    25    1
    47    24    45    1
    48    24    46    1
    49    24    47    1
    50    25    48    1
    51    26    49    1
    52    26    50    1
@<TRIPOS>SUBSTRUCTURE
     1 ZINC000942661662        1 TEMP              0 ****  ****    0 ROOT


##########                                Name:    ZINC000010935976
##########                DOCK_Rotatable_Bonds:                   3
##########                         Heavy_Atoms:                  26
##########                    Molecular_Weight:             391.558
##########                DOCK_Rotatable_Bonds:                   3
##########                       Formal_Charge:         -0.00999979
##########                     HBond_Acceptors:                   7
##########                        HBond_Donors:                   1
##########                         Heavy_Atoms:                  26
##########                          Grid_Score:          -27.424992
##########                     Grid_vdw_energy:          -26.699472
##########                      Grid_es_energy:           -0.725518
##########           Internal_energy_repulsive:          125.713440

@<TRIPOS>MOLECULE
ZINC000010935976
 51 54 1 0 0
SMALL
USER_CHARGES


@<TRIPOS>ATOM
      1 C1         -7.6762   -0.0071   60.9644 C.3     1  ZINC000010935976   -0.0800
      2 C2         -8.6346   -0.1816   59.8146 C.2     1  ZINC000010935976   -0.2100
      3 C3         -9.6384   -1.0367   59.8062 C.2     1  ZINC000010935976   -0.0400
      4 C4         -9.9392   -1.9472   60.9688 C.3     1  ZINC000010935976   -0.1000
      5 C5        -10.4315   -1.0329   58.5909 C.2     1  ZINC000010935976   -0.2300
      6 C6         -9.9614   -0.1078   57.6615 C.2     1  ZINC000010935976    0.0900
      7 N7        -10.5873    0.0230   56.4750 N.2     1  ZINC000010935976   -0.4900
      8 C8        -11.6357   -0.7023   56.1678 C.2     1  ZINC000010935976    0.3400
      9 S9        -12.4052   -0.4801   54.5983 S.3     1  ZINC000010935976    0.0500
     10 C10       -10.9573   -0.0671   53.5939 C.3     1  ZINC000010935976   -0.1000
     11 H11       -10.0715   -0.5421   54.0157 H       1  ZINC000010935976    0.1400
     12 C12       -10.7644    1.4511   53.5694 C.3     1  ZINC000010935976   -0.1000
     13 C13       -12.1047    2.1636   53.5832 C.3     1  ZINC000010935976   -0.1300
     14 C14       -12.9249    1.9507   52.3241 C.3     1  ZINC000010935976   -0.1400
     15 C15       -13.3721    0.4925   52.2047 C.3     1  ZINC000010935976    0.0700
     16 N16       -12.3081   -0.2732   51.5354 N.am    1  ZINC000010935976   -0.7200
     17 C17       -11.1674   -0.5519   52.1748 C.2     1  ZINC000010935976    0.5400
     18 O18       -10.3002   -1.1880   51.6144 O.2     1  ZINC000010935976   -0.5200
     19 N19       -12.1449   -1.6256   57.0345 N.am    1  ZINC000010935976   -0.5100
     20 C20       -13.3176   -2.4160   56.6522 C.3     1  ZINC000010935976    0.1200
     21 C21       -12.8942   -3.8607   56.3151 C.3     1  ZINC000010935976   -0.1300
     22 C22       -13.1325   -4.6430   57.6304 C.3     1  ZINC000010935976   -0.1300
     23 C23       -14.4365   -4.0083   58.1743 C.3     1  ZINC000010935976   -0.1100
     24 C24       -14.2982   -2.5099   57.8343 C.3     1  ZINC000010935976   -0.1200
     25 C25       -11.5731   -1.8140   58.2396 C.2     1  ZINC000010935976    0.5600
     26 O26       -12.0240   -2.6370   59.0177 O.2     1  ZINC000010935976   -0.5000
     27 S27        -8.5625    0.7314   58.3195 S.3     1  ZINC000010935976    0.2100
     28 H28        -6.9471    0.7642   60.7158 H       1  ZINC000010935976    0.0700
     29 H29        -8.2286    0.2891   61.8562 H       1  ZINC000010935976    0.0800
     30 H30        -7.1596   -0.9482   61.1529 H       1  ZINC000010935976    0.0800
     31 H31       -10.6262   -1.4486   61.6526 H       1  ZINC000010935976    0.0700
     32 H32       -10.3952   -2.8666   60.6018 H       1  ZINC000010935976    0.0800
     33 H33        -9.0135   -2.1848   61.4931 H       1  ZINC000010935976    0.0700
     34 H34       -10.1879    1.7538   54.4436 H       1  ZINC000010935976    0.0900
     35 H35       -10.2194    1.7291   52.6672 H       1  ZINC000010935976    0.0900
     36 H36       -12.6796    1.8065   54.4376 H       1  ZINC000010935976    0.0700
     37 H37       -11.9293    3.2321   53.7078 H       1  ZINC000010935976    0.0800
     38 H38       -13.8044    2.5938   52.3562 H       1  ZINC000010935976    0.0800
     39 H39       -12.3217    2.2129   51.4549 H       1  ZINC000010935976    0.0700
     40 H40       -13.5487    0.0816   53.1987 H       1  ZINC000010935976    0.1100
     41 H41       -14.2878    0.4379   51.6158 H       1  ZINC000010935976    0.0900
     42 H42       -12.4358   -0.5806   50.6243 H       1  ZINC000010935976    0.4000
     43 H43       -13.8107   -1.9607   55.7933 H       1  ZINC000010935976    0.1000
     44 H44       -13.5146   -4.2630   55.5142 H       1  ZINC000010935976    0.0800
     45 H45       -11.8410   -3.8944   56.0366 H       1  ZINC000010935976    0.0700
     46 H46       -13.2749   -5.7046   57.4280 H       1  ZINC000010935976    0.0600
     47 H47       -12.3082   -4.4886   58.3265 H       1  ZINC000010935976    0.1100
     48 H48       -15.3059   -4.4343   57.6737 H       1  ZINC000010935976    0.0600
     49 H49       -14.5087   -4.1496   59.2526 H       1  ZINC000010935976    0.0700
     50 H50       -13.9015   -1.9674   58.6924 H       1  ZINC000010935976    0.0800
     51 H51       -15.2673   -2.1007   57.5488 H       1  ZINC000010935976    0.0700
@<TRIPOS>BOND
     1     1     2    1
     2     1    28    1
     3     1    29    1
     4     1    30    1
     5     2    27    1
     6     2     3    2
     7     3     4    1
     8     3     5    1
     9     4    31    1
    10     4    32    1
    11     4    33    1
    12     5    25    1
    13     5     6    2
    14     6     7    1
    15     6    27    1
    16     7     8    2
    17     8     9    1
    18     8    19    1
    19     9    10    1
    20    10    11    1
    21    10    17    1
    22    10    12    1
    23    12    13    1
    24    12    34    1
    25    12    35    1
    26    13    14    1
    27    13    36    1
    28    13    37    1
    29    14    15    1
    30    14    38    1
    31    14    39    1
    32    15    16    1
    33    15    40    1
    34    15    41    1
    35    16    17   am
    36    16    42    1
    37    17    18    2
    38    19    20    1
    39    19    25   am
    40    20    24    1
    41    20    21    1
    42    20    43    1
    43    21    22    1
    44    21    44    1
    45    21    45    1
    46    22    23    1
    47    22    46    1
    48    22    47    1
    49    23    24    1
    50    23    48    1
    51    23    49    1
    52    24    50    1
    53    24    51    1
    54    25    26    2
@<TRIPOS>SUBSTRUCTURE
     1 ZINC000010935976        1 TEMP              0 ****  ****    0 ROOT


##########                                Name:    ZINC000371438955
##########                DOCK_Rotatable_Bonds:                   4
##########                         Heavy_Atoms:                  25
##########                    Molecular_Weight:             387.499
##########                DOCK_Rotatable_Bonds:                   4
##########                       Formal_Charge:          -0.0299995
##########                     HBond_Acceptors:                   9
##########                        HBond_Donors:                   1
##########                         Heavy_Atoms:                  25
##########                          Grid_Score:          -27.365097
##########                     Grid_vdw_energy:          -27.955599
##########                      Grid_es_energy:            0.590502
##########           Internal_energy_repulsive:           22.417879

@<TRIPOS>MOLECULE
ZINC000371438955
 47 49 1 0 0
SMALL
USER_CHARGES


@<TRIPOS>ATOM
      1 C1        -13.6698   -5.3605   57.3203 C.3     1  ZINC000371438955   -0.6800
      2 S2        -14.3380   -3.8320   56.6079 S.o2    1  ZINC000371438955    2.6000
      3 O3        -13.2852   -2.9498   56.2438 O.2     1  ZINC000371438955   -0.9500
      4 O4        -15.3951   -4.1236   55.7042 O.2     1  ZINC000371438955   -0.9500
      5 N5        -15.0838   -3.0755   57.8783 N.am    1  ZINC000371438955   -0.9900
      6 C6        -15.7283   -1.8136   57.6534 C.3     1  ZINC000371438955    0.1300
      7 C7        -14.6717   -0.7070   57.8088 C.3     1  ZINC000371438955   -0.1700
      8 C8        -14.3871   -0.4166   59.2229 C.3     1  ZINC000371438955    0.1400
      9 N9        -13.9161   -1.6393   59.9154 N.am    1  ZINC000371438955   -0.6200
     10 C10       -12.6036   -1.8027   60.1751 C.2     1  ZINC000371438955    0.7100
     11 O11       -12.2166   -2.8054   60.7432 O.2     1  ZINC000371438955   -0.5800
     12 N12       -11.7204   -0.8543   59.8051 N.am    1  ZINC000371438955   -0.7400
     13 C13       -10.2938   -1.0318   60.0873 C.3     1  ZINC000371438955    0.2000
     14 H14       -10.0567   -2.0940   60.0273 H       1  ZINC000371438955    0.1100
     15 C15       -10.0143   -0.5505   61.5005 C.3     1  ZINC000371438955   -0.1300
     16 C16        -8.5287   -0.7710   61.8182 C.3     1  ZINC000371438955   -0.1100
     17 S17        -7.5849    0.4595   60.8730 S.3     1  ZINC000371438955   -0.1000
     18 C18        -8.3104    0.3524   59.2680 C.ar    1  ZINC000371438955   -0.1100
     19 C19        -7.6362    0.9646   58.2076 C.ar    1  ZINC000371438955    0.1100
     20 F20        -6.4656    1.5993   58.4358 F       1  ZINC000371438955   -0.1300
     21 C21        -8.1550    0.9259   56.9301 C.ar    1  ZINC000371438955   -0.1300
     22 C22        -9.3553    0.2772   56.7020 C.ar    1  ZINC000371438955   -0.1000
     23 C23       -10.0201   -0.3294   57.7453 C.ar    1  ZINC000371438955   -0.1000
     24 C24        -9.5028   -0.3033   59.0409 C.ar    1  ZINC000371438955   -0.0800
     25 C25       -14.8568   -2.6500   60.3104 C.3     1  ZINC000371438955    0.1000
     26 C26       -15.0691   -3.7295   59.2154 C.3     1  ZINC000371438955    0.0900
     27 H27       -12.9672   -5.1137   58.1162 H       1  ZINC000371438955    0.1300
     28 H28       -14.4851   -5.9583   57.7279 H       1  ZINC000371438955    0.1300
     29 H29       -13.1556   -5.9284   56.5449 H       1  ZINC000371438955    0.1300
     30 H30       -16.1449   -1.7869   56.6465 H       1  ZINC000371438955    0.0800
     31 H31       -16.5229   -1.6700   58.3856 H       1  ZINC000371438955    0.0800
     32 H32       -13.7509   -1.0240   57.3192 H       1  ZINC000371438955    0.0800
     33 H33       -15.0345    0.2005   57.3260 H       1  ZINC000371438955    0.0900
     34 H34       -13.6174    0.3526   59.2853 H       1  ZINC000371438955    0.0900
     35 H35       -15.2946   -0.0550   59.7066 H       1  ZINC000371438955    0.0700
     36 H36       -12.0292   -0.0543   59.3518 H       1  ZINC000371438955    0.4000
     37 H37       -10.2502    0.5109   61.5777 H       1  ZINC000371438955    0.0900
     38 H38       -10.6257   -1.1138   62.2054 H       1  ZINC000371438955    0.1000
     39 H39        -8.3532   -0.6333   62.8851 H       1  ZINC000371438955    0.1200
     40 H40        -8.2308   -1.7762   61.5193 H       1  ZINC000371438955    0.1000
     41 H41        -7.6284    1.3986   56.1144 H       1  ZINC000371438955    0.1400
     42 H42        -9.7716    0.2465   55.7060 H       1  ZINC000371438955    0.1300
     43 H43       -10.9575   -0.8317   57.5572 H       1  ZINC000371438955    0.1400
     44 H44       -14.4945   -3.1339   61.2174 H       1  ZINC000371438955    0.0800
     45 H45       -15.8146   -2.1759   60.5245 H       1  ZINC000371438955    0.0900
     46 H46       -16.0168   -4.2400   59.3872 H       1  ZINC000371438955    0.0800
     47 H47       -14.2543   -4.4524   59.2549 H       1  ZINC000371438955    0.1000
@<TRIPOS>BOND
     1     1     2    1
     2     1    27    1
     3     1    28    1
     4     1    29    1
     5     2     3    2
     6     2     4    2
     7     2     5   am
     8     5    26    1
     9     5     6    1
    10     6     7    1
    11     6    30    1
    12     6    31    1
    13     7     8    1
    14     7    32    1
    15     7    33    1
    16     8     9    1
    17     8    34    1
    18     8    35    1
    19     9    10   am
    20     9    25    1
    21    10    11    2
    22    10    12   am
    23    12    13    1
    24    12    36    1
    25    13    14    1
    26    13    24    1
    27    13    15    1
    28    15    16    1
    29    15    37    1
    30    15    38    1
    31    16    17    1
    32    16    39    1
    33    16    40    1
    34    17    18    1
    35    18    24   ar
    36    18    19   ar
    37    19    20    1
    38    19    21   ar
    39    21    22   ar
    40    21    41    1
    41    22    23   ar
    42    22    42    1
    43    23    24   ar
    44    23    43    1
    45    25    26    1
    46    25    44    1
    47    25    45    1
    48    26    46    1
    49    26    47    1
@<TRIPOS>SUBSTRUCTURE
     1 ZINC000371438955        1 TEMP              0 ****  ****    0 ROOT


##########                                Name:    ZINC000629379364
##########                DOCK_Rotatable_Bonds:                   5
##########                         Heavy_Atoms:                  23
##########                    Molecular_Weight:             386.261
##########                DOCK_Rotatable_Bonds:                   5
##########                       Formal_Charge:               -0.02
##########                     HBond_Acceptors:                   5
##########                        HBond_Donors:                   1
##########                         Heavy_Atoms:                  23
##########                          Grid_Score:          -27.343498
##########                     Grid_vdw_energy:          -22.692583
##########                      Grid_es_energy:           -4.650916
##########           Internal_energy_repulsive:           20.749048

@<TRIPOS>MOLECULE
ZINC000629379364
 44 46 1 0 0
SMALL
USER_CHARGES


@<TRIPOS>ATOM
      1 O1        -11.9747   -0.6906   60.6296 O.co2   1  ZINC000629379364   -0.6800
      2 C2        -11.3597   -0.9976   59.6227 C.2     1  ZINC000629379364    0.5000
      3 O3        -11.9545   -1.1609   58.5710 O.co2   1  ZINC000629379364   -0.6900
      4 C4         -9.8635   -1.1692   59.6765 C.3     1  ZINC000629379364   -0.1600
      5 H5         -9.5375   -1.8434   58.8844 H       1  ZINC000629379364    0.0800
      6 C6         -9.4474   -1.7293   61.0480 C.3     1  ZINC000629379364   -0.1300
      7 C7         -7.9288   -1.7790   61.1860 C.3     1  ZINC000629379364   -0.0100
      8 N8         -7.3113   -0.4640   60.9272 N.4     1  ZINC000629379364   -0.3700
      9 H9         -6.3093   -0.5306   61.0249 H       1  ZINC000629379364    0.4200
     10 C10        -7.8396    0.5299   61.8712 C.3     1  ZINC000629379364   -0.0200
     11 C11        -6.8077    0.7877   62.9709 C.3     1  ZINC000629379364    0.0300
     12 O12        -7.4236    1.5027   64.0439 O.3     1  ZINC000629379364   -0.3200
     13 C13        -6.6597    1.7476   65.1409 C.ar    1  ZINC000629379364    0.1600
     14 C14        -7.1954    2.4327   66.2211 C.ar    1  ZINC000629379364   -0.2300
     15 C15        -6.4157    2.6809   67.3371 C.ar    1  ZINC000629379364    0.1500
     16 F16        -6.9365    3.3482   68.3901 F       1  ZINC000629379364   -0.1200
     17 C17        -5.1019    2.2452   67.3750 C.ar    1  ZINC000629379364   -0.1600
     18 C18        -4.5667    1.5622   66.2976 C.ar    1  ZINC000629379364   -0.0300
     19 Br19       -2.7721    0.9684   66.3525 Br      1  ZINC000629379364   -0.0100
     20 C20        -5.3445    1.3075   65.1837 C.ar    1  ZINC000629379364   -0.1300
     21 C21        -7.6508   -0.0835   59.5656 C.3     1  ZINC000629379364   -0.0100
     22 H22        -7.3917   -0.8883   58.8777 H       1  ZINC000629379364    0.1400
     23 C23        -7.0684    1.2425   59.0652 C.3     1  ZINC000629379364   -0.1300
     24 C24        -8.0280    1.6304   57.9075 C.3     1  ZINC000629379364   -0.1200
     25 C25        -9.3694    0.9108   58.1924 C.3     1  ZINC000629379364   -0.1100
     26 C26        -9.1805    0.1791   59.5241 C.3     1  ZINC000629379364   -0.0700
     27 H27        -9.4433    0.8387   60.3511 H       1  ZINC000629379364    0.1000
     28 H28        -9.8569   -1.0933   61.8328 H       1  ZINC000629379364    0.0800
     29 H29        -9.8494   -2.7363   61.1595 H       1  ZINC000629379364    0.1100
     30 H30        -7.6743   -2.0980   62.1969 H       1  ZINC000629379364    0.1200
     31 H31        -7.5311   -2.5039   60.4759 H       1  ZINC000629379364    0.1300
     32 H32        -8.0463    1.4599   61.3416 H       1  ZINC000629379364    0.1400
     33 H33        -8.7600    0.1536   62.3176 H       1  ZINC000629379364    0.1700
     34 H34        -6.4252   -0.1638   63.3406 H       1  ZINC000629379364    0.1100
     35 H35        -5.9850    1.3774   62.5664 H       1  ZINC000629379364    0.0900
     36 H36        -8.2202    2.7724   66.1913 H       1  ZINC000629379364    0.1500
     37 H37        -4.4943    2.4391   68.2466 H       1  ZINC000629379364    0.1500
     38 H38        -4.9259    0.7739   64.3432 H       1  ZINC000629379364    0.1500
     39 H39        -7.0911    1.9952   59.8532 H       1  ZINC000629379364    0.0800
     40 H40        -6.0534    1.1020   58.6937 H       1  ZINC000629379364    0.0900
     41 H41        -8.1785    2.7098   57.8922 H       1  ZINC000629379364    0.0800
     42 H42        -7.6188    1.2956   56.9544 H       1  ZINC000629379364    0.0800
     43 H43       -10.1799    1.6364   58.2605 H       1  ZINC000629379364    0.0900
     44 H44        -9.5797    0.1811   57.4103 H       1  ZINC000629379364    0.0800
@<TRIPOS>BOND
     1     1     2   ar
     2     2     3   ar
     3     2     4    1
     4     4     5    1
     5     4    26    1
     6     4     6    1
     7     6     7    1
     8     6    28    1
     9     6    29    1
    10     7     8    1
    11     7    30    1
    12     7    31    1
    13     8     9    1
    14     8    10    1
    15     8    21    1
    16    10    11    1
    17    10    32    1
    18    10    33    1
    19    11    12    1
    20    11    34    1
    21    11    35    1
    22    12    13    1
    23    13    20   ar
    24    13    14   ar
    25    14    15   ar
    26    14    36    1
    27    15    16    1
    28    15    17   ar
    29    17    18   ar
    30    17    37    1
    31    18    19    1
    32    18    20   ar
    33    20    38    1
    34    21    22    1
    35    21    26    1
    36    21    23    1
    37    23    24    1
    38    23    39    1
    39    23    40    1
    40    24    25    1
    41    24    41    1
    42    24    42    1
    43    25    26    1
    44    25    43    1
    45    25    44    1
    46    26    27    1
@<TRIPOS>SUBSTRUCTURE
     1 ZINC000629379364        1 TEMP              0 ****  ****    0 ROOT


##########                                Name:    ZINC001016082614
##########                DOCK_Rotatable_Bonds:                   6
##########                         Heavy_Atoms:                  25
##########                    Molecular_Weight:             348.402
##########                DOCK_Rotatable_Bonds:                   6
##########                       Formal_Charge:         -0.00999998
##########                     HBond_Acceptors:                   8
##########                        HBond_Donors:                   1
##########                         Heavy_Atoms:                  25
##########                          Grid_Score:          -27.328577
##########                     Grid_vdw_energy:          -27.510345
##########                      Grid_es_energy:            0.181768
##########           Internal_energy_repulsive:           50.144909

@<TRIPOS>MOLECULE
ZINC001016082614
 49 51 1 0 0
SMALL
USER_CHARGES


@<TRIPOS>ATOM
      1 C1         -0.2098    3.2498   51.0939 C.3     1  ZINC001016082614   -0.1700
      2 C2         -1.0319    3.6568   49.8694 C.3     1  ZINC001016082614    0.1000
      3 N3         -1.9486    2.5708   49.5137 N.am    1  ZINC001016082614   -0.6100
      4 C4         -3.0569    2.3560   50.2501 C.2     1  ZINC001016082614    0.6100
      5 O5         -3.8183    1.4541   49.9547 O.2     1  ZINC001016082614   -0.5100
      6 C6         -3.3452    3.2099   51.4079 C.2     1  ZINC001016082614   -0.1100
      7 C7         -4.4171    3.1114   52.2447 C.2     1  ZINC001016082614    0.0600
      8 N8         -4.2986    4.0757   53.1632 N.2     1  ZINC001016082614   -0.4900
      9 C9         -3.2088    4.7558   52.9274 C.2     1  ZINC001016082614    0.2000
     10 O10        -2.5956    4.2440   51.8556 O.3     1  ZINC001016082614   -0.1900
     11 C11        -1.6607    1.7182   48.3577 C.3     1  ZINC001016082614    0.1600
     12 H12        -2.5505    1.1301   48.1329 H       1  ZINC001016082614    0.0800
     13 C13        -1.3559    2.6128   47.1600 C.3     1  ZINC001016082614   -0.1300
     14 C14        -1.6880    1.8743   45.8868 C.3     1  ZINC001016082614   -0.1300
     15 C15        -0.4444    1.1304   45.3671 C.3     1  ZINC001016082614    0.1000
     16 N16         0.3259    0.5038   46.4593 N.am    1  ZINC001016082614   -0.6000
     17 C17         1.6707    0.5867   46.4316 C.2     1  ZINC001016082614    0.5000
     18 O18         2.3278    0.0807   47.3165 O.2     1  ZINC001016082614   -0.5200
     19 C19         2.3581    1.3083   45.3012 C.3     1  ZINC001016082614    0.1100
     20 H20         1.8136    1.1542   44.3696 H       1  ZINC001016082614    0.1100
     21 C21         3.8142    0.8129   45.1576 C.3     1  ZINC001016082614   -0.1200
     22 C22         4.5835    1.8416   46.0182 C.3     1  ZINC001016082614   -0.1600
     23 C23         3.6976    3.0678   46.0111 C.2     1  ZINC001016082614    0.5300
     24 O24         4.0525    4.1831   46.3290 O.2     1  ZINC001016082614   -0.5300
     25 N25         2.4578    2.7418   45.5998 N.am    1  ZINC001016082614   -0.7100
     26 C26        -0.3030   -0.1949   47.5577 C.3     1  ZINC001016082614    0.1300
     27 C27        -0.5707    0.7979   48.7160 C.3     1  ZINC001016082614   -0.1600
     28 H28         0.4722    4.0578   51.3586 H       1  ZINC001016082614    0.0700
     29 H29        -0.8790    3.0504   51.9309 H       1  ZINC001016082614    0.0500
     30 H30         0.3630    2.3512   50.8647 H       1  ZINC001016082614    0.0600
     31 H31        -1.6048    4.5554   50.0987 H       1  ZINC001016082614    0.0900
     32 H32        -0.3627    3.8562   49.0325 H       1  ZINC001016082614    0.0900
     33 H33        -5.2157    2.3875   52.1777 H       1  ZINC001016082614    0.2000
     34 H34        -2.8566    5.5953   53.5086 H       1  ZINC001016082614    0.2600
     35 H35        -1.9569    3.5201   47.2214 H       1  ZINC001016082614    0.0700
     36 H36        -0.2982    2.8759   47.1624 H       1  ZINC001016082614    0.0800
     37 H37        -2.4834    1.1554   46.0830 H       1  ZINC001016082614    0.0700
     38 H38        -2.0245    2.5863   45.1332 H       1  ZINC001016082614    0.0800
     39 H39        -0.7613    0.3564   44.6681 H       1  ZINC001016082614    0.0700
     40 H40         0.1975    1.8379   44.8421 H       1  ZINC001016082614    0.0800
     41 H41         3.9252   -0.1937   45.5607 H       1  ZINC001016082614    0.1000
     42 H42         4.1392    0.8532   44.1180 H       1  ZINC001016082614    0.1000
     43 H43         4.7113    1.4692   47.0346 H       1  ZINC001016082614    0.1100
     44 H44         5.5508    2.0673   45.5692 H       1  ZINC001016082614    0.1100
     45 H45         1.7264    3.3729   45.5128 H       1  ZINC001016082614    0.4200
     46 H46        -1.2460   -0.6260   47.2214 H       1  ZINC001016082614    0.0800
     47 H47         0.3554   -0.9907   47.9061 H       1  ZINC001016082614    0.0900
     48 H48         0.3356    1.3685   48.9187 H       1  ZINC001016082614    0.0900
     49 H49        -0.8515    0.2417   49.6103 H       1  ZINC001016082614    0.0700
@<TRIPOS>BOND
     1     1     2    1
     2     1    28    1
     3     1    29    1
     4     1    30    1
     5     2     3    1
     6     2    31    1
     7     2    32    1
     8     3     4   am
     9     3    11    1
    10     4     5    2
    11     4     6    1
    12     6    10    1
    13     6     7    2
    14     7     8    1
    15     7    33    1
    16     8     9    2
    17     9    10    1
    18     9    34    1
    19    11    12    1
    20    11    27    1
    21    11    13    1
    22    13    14    1
    23    13    35    1
    24    13    36    1
    25    14    15    1
    26    14    37    1
    27    14    38    1
    28    15    16    1
    29    15    39    1
    30    15    40    1
    31    16    17   am
    32    16    26    1
    33    17    18    2
    34    17    19    1
    35    19    20    1
    36    19    25    1
    37    19    21    1
    38    21    22    1
    39    21    41    1
    40    21    42    1
    41    22    23    1
    42    22    43    1
    43    22    44    1
    44    23    24    2
    45    23    25   am
    46    25    45    1
    47    26    27    1
    48    26    46    1
    49    26    47    1
    50    27    48    1
    51    27    49    1
@<TRIPOS>SUBSTRUCTURE
     1 ZINC001016082614        1 TEMP              0 ****  ****    0 ROOT


##########                                Name:    ZINC000966038509
##########                DOCK_Rotatable_Bonds:                   5
##########                         Heavy_Atoms:                  25
##########                    Molecular_Weight:             346.445
##########                DOCK_Rotatable_Bonds:                   5
##########                       Formal_Charge:           0.0299998
##########                     HBond_Acceptors:                   5
##########                        HBond_Donors:                   1
##########                         Heavy_Atoms:                  25
##########                          Grid_Score:          -27.308960
##########                     Grid_vdw_energy:          -27.477118
##########                      Grid_es_energy:            0.168157
##########           Internal_energy_repulsive:           16.878368

@<TRIPOS>MOLECULE
ZINC000966038509
 52 54 1 0 0
SMALL
USER_CHARGES


@<TRIPOS>ATOM
      1 C1        -16.7001   -1.4174   58.4513 C.3     1  ZINC000966038509   -0.1200
      2 C2        -16.0723   -2.3969   57.4935 C.ar    1  ZINC000966038509   -0.0100
      3 C3        -16.5231   -2.4769   56.1934 C.ar    1  ZINC000966038509   -0.1600
      4 C4        -15.9466   -3.3781   55.3113 C.ar    1  ZINC000966038509    0.1300
      5 F5        -16.3926   -3.4527   54.0382 F       1  ZINC000966038509   -0.1300
      6 C6        -14.9139   -4.2025   55.7309 C.ar    1  ZINC000966038509   -0.1600
      7 C7        -14.4554   -4.1308   57.0288 C.ar    1  ZINC000966038509   -0.0100
      8 C8        -13.3332   -5.0280   57.4836 C.3     1  ZINC000966038509   -0.1200
      9 C9        -15.0288   -3.2213   57.9200 C.ar    1  ZINC000966038509   -0.1500
     10 C10       -14.5416   -3.1400   59.3121 C.2     1  ZINC000966038509    0.5700
     11 O11       -15.1369   -3.7200   60.1994 O.2     1  ZINC000966038509   -0.5200
     12 N12       -13.4370   -2.4229   59.5988 N.am    1  ZINC000966038509   -0.7100
     13 C13       -12.9528   -2.3437   60.9792 C.3     1  ZINC000966038509    0.1300
     14 H14       -13.5019   -3.0303   61.6236 H       1  ZINC000966038509    0.1200
     15 C15       -11.4292   -2.6145   61.0496 C.3     1  ZINC000966038509    0.0900
     16 N16       -10.8007   -1.3332   60.6798 N.am    1  ZINC000966038509   -0.6200
     17 C17        -9.5639   -1.1846   60.1652 C.2     1  ZINC000966038509    0.5400
     18 O18        -8.8671   -2.1579   59.9707 O.2     1  ZINC000966038509   -0.5300
     19 C19        -9.0471    0.1910   59.8313 C.3     1  ZINC000966038509   -0.1100
     20 C20        -7.5095    0.2505   60.0091 C.3     1  ZINC000966038509   -0.1100
     21 C21        -7.1043    1.4290   59.0895 C.3     1  ZINC000966038509   -0.1200
     22 C22        -8.0321    1.2895   57.8648 C.3     1  ZINC000966038509   -0.1200
     23 C23        -9.2673    0.5025   58.3365 C.3     1  ZINC000966038509   -0.1100
     24 C24       -11.7468   -0.2445   60.9647 C.3     1  ZINC000966038509    0.1000
     25 C25       -13.0369   -0.8902   61.5155 C.3     1  ZINC000966038509   -0.1100
     26 H26       -13.0381   -0.8805   62.6055 H       1  ZINC000966038509    0.1000
     27 C27       -14.2752   -0.1773   60.9685 C.3     1  ZINC000966038509   -0.1400
     28 H28       -16.1703   -0.4663   58.3976 H       1  ZINC000966038509    0.0800
     29 H29       -17.7458   -1.2665   58.1832 H       1  ZINC000966038509    0.0800
     30 H30       -16.6384   -1.8110   59.4659 H       1  ZINC000966038509    0.0700
     31 H31       -17.3270   -1.8367   55.8613 H       1  ZINC000966038509    0.1400
     32 H32       -14.4681   -4.9025   55.0397 H       1  ZINC000966038509    0.1400
     33 H33       -12.3784   -4.5310   57.3121 H       1  ZINC000966038509    0.0800
     34 H34       -13.4463   -5.2409   58.5467 H       1  ZINC000966038509    0.0700
     35 H35       -13.3633   -5.9612   56.9211 H       1  ZINC000966038509    0.0800
     36 H36       -12.9627   -1.9591   58.8911 H       1  ZINC000966038509    0.4000
     37 H37       -11.1411   -2.9004   62.0611 H       1  ZINC000966038509    0.0800
     38 H38       -11.1491   -3.3931   60.3401 H       1  ZINC000966038509    0.0800
     39 H39        -9.5343    0.9420   60.4532 H       1  ZINC000966038509    0.0900
     40 H40        -7.2485    0.4621   61.0460 H       1  ZINC000966038509    0.0700
     41 H41        -7.0459   -0.6777   59.6748 H       1  ZINC000966038509    0.0700
     42 H42        -7.2759    2.3812   59.5914 H       1  ZINC000966038509    0.0700
     43 H43        -6.0604    1.3374   58.7895 H       1  ZINC000966038509    0.0700
     44 H44        -8.3311    2.2754   57.5087 H       1  ZINC000966038509    0.0700
     45 H45        -7.5226    0.7439   57.0705 H       1  ZINC000966038509    0.0700
     46 H46        -9.3572   -0.4252   57.7712 H       1  ZINC000966038509    0.0800
     47 H47       -10.1658    1.1063   58.2093 H       1  ZINC000966038509    0.0700
     48 H48       -11.3229    0.4297   61.7090 H       1  ZINC000966038509    0.0800
     49 H49       -11.9683    0.3033   60.0488 H       1  ZINC000966038509    0.0700
     50 H50       -14.2700   -0.2244   59.8794 H       1  ZINC000966038509    0.0600
     51 H51       -15.1728   -0.6648   61.3489 H       1  ZINC000966038509    0.0700
     52 H52       -14.2649    0.8650   61.2872 H       1  ZINC000966038509    0.0700
@<TRIPOS>BOND
     1     1     2    1
     2     1    28    1
     3     1    29    1
     4     1    30    1
     5     2     9   ar
     6     2     3   ar
     7     3     4   ar
     8     3    31    1
     9     4     5    1
    10     4     6   ar
    11     6     7   ar
    12     6    32    1
    13     7     8    1
    14     7     9   ar
    15     8    33    1
    16     8    34    1
    17     8    35    1
    18     9    10    1
    19    10    11    2
    20    10    12   am
    21    12    13    1
    22    12    36    1
    23    13    14    1
    24    13    25    1
    25    13    15    1
    26    15    16    1
    27    15    37    1
    28    15    38    1
    29    16    17   am
    30    16    24    1
    31    17    18    2
    32    17    19    1
    33    19    23    1
    34    19    20    1
    35    19    39    1
    36    20    21    1
    37    20    40    1
    38    20    41    1
    39    21    22    1
    40    21    42    1
    41    21    43    1
    42    22    23    1
    43    22    44    1
    44    22    45    1
    45    23    46    1
    46    23    47    1
    47    24    25    1
    48    24    48    1
    49    24    49    1
    50    25    26    1
    51    25    27    1
    52    27    50    1
    53    27    51    1
    54    27    52    1
@<TRIPOS>SUBSTRUCTURE
     1 ZINC000966038509        1 TEMP              0 ****  ****    0 ROOT


##########                                Name:    ZINC000341804698
##########                DOCK_Rotatable_Bonds:                   7
##########                         Heavy_Atoms:                  24
##########                    Molecular_Weight:             342.318
##########                DOCK_Rotatable_Bonds:                   7
##########                       Formal_Charge:                0.02
##########                     HBond_Acceptors:                   8
##########                        HBond_Donors:                   0
##########                         Heavy_Atoms:                  24
##########                          Grid_Score:          -27.284979
##########                     Grid_vdw_energy:          -26.245350
##########                      Grid_es_energy:           -1.039630
##########           Internal_energy_repulsive:           27.766924

@<TRIPOS>MOLECULE
ZINC000341804698
 41 42 1 0 0
SMALL
USER_CHARGES


@<TRIPOS>ATOM
      1 C1         -0.7236    0.1837   44.0908 C.3     1  ZINC000341804698    0.0300
      2 O2         -1.6319    0.3347   45.1837 O.3     1  ZINC000341804698   -0.3900
      3 C3         -1.7566    1.6781   45.6545 C.3     1  ZINC000341804698    0.0700
      4 C4         -1.2392    1.7649   47.0917 C.3     1  ZINC000341804698    0.0400
      5 C5         -0.6645    0.4681   47.4853 C.1     1  ZINC000341804698    0.2200
      6 N6         -0.2210   -0.5326   47.7889 N.1     1  ZINC000341804698   -0.4200
      7 C7         -0.1618    2.8480   47.1812 C.3     1  ZINC000341804698   -0.1200
      8 C8          0.3783    2.9084   48.6136 C.3     1  ZINC000341804698    0.1100
      9 N9         -0.7488    3.1008   49.5362 N.am    1  ZINC000341804698   -0.6000
     10 C10        -0.7439    4.1144   50.4244 C.2     1  ZINC000341804698    0.5700
     11 O11         0.1992    4.8801   50.4675 O.2     1  ZINC000341804698   -0.5200
     12 C12        -1.8855    4.2951   51.3464 C.ar    1  ZINC000341804698   -0.0900
     13 C13        -2.9202    5.1717   51.0166 C.ar    1  ZINC000341804698   -0.1100
     14 C14        -3.9842    5.3381   51.8795 C.ar    1  ZINC000341804698   -0.0800
     15 C15        -4.0291    4.6388   53.0712 C.ar    1  ZINC000341804698   -0.1700
     16 C16        -3.0041    3.7649   53.4082 C.ar    1  ZINC000341804698    0.1100
     17 O17        -3.0533    3.0803   54.5813 O.3     1  ZINC000341804698   -0.3100
     18 C18        -4.2009    3.2894   55.4069 C.3     1  ZINC000341804698    0.6000
     19 F19        -4.2826    4.6411   55.7582 F       1  ZINC000341804698   -0.1600
     20 F20        -5.3534    2.9192   54.7057 F       1  ZINC000341804698   -0.1300
     21 F21        -4.0899    2.5126   56.5650 F       1  ZINC000341804698   -0.1600
     22 C22        -1.9350    3.5857   52.5469 C.ar    1  ZINC000341804698   -0.0700
     23 C23        -1.8817    2.1674   49.4718 C.3     1  ZINC000341804698    0.0900
     24 C24        -2.3964    2.1155   48.0299 C.3     1  ZINC000341804698   -0.1200
     25 H25        -1.0627    0.7889   43.2502 H       1  ZINC000341804698    0.0400
     26 H26         0.2702    0.5109   44.3966 H       1  ZINC000341804698    0.0500
     27 H27        -0.6853   -0.8639   43.7923 H       1  ZINC000341804698    0.0900
     28 H28        -1.1724    2.3420   45.0173 H       1  ZINC000341804698    0.0700
     29 H29        -2.8045    1.9770   45.6269 H       1  ZINC000341804698    0.0600
     30 H30         0.6514    2.6097   46.4956 H       1  ZINC000341804698    0.1000
     31 H31        -0.5927    3.8129   46.9139 H       1  ZINC000341804698    0.0900
     32 H32         0.8896    1.9754   48.8509 H       1  ZINC000341804698    0.0700
     33 H33         1.0736    3.7425   48.7071 H       1  ZINC000341804698    0.1100
     34 H34        -2.8880    5.7198   50.0865 H       1  ZINC000341804698    0.1400
     35 H35        -4.7841    6.0170   51.6232 H       1  ZINC000341804698    0.1400
     36 H36        -4.8643    4.7730   53.7427 H       1  ZINC000341804698    0.1400
     37 H37        -1.1373    2.9060   52.8076 H       1  ZINC000341804698    0.1500
     38 H38        -1.5547    1.1741   49.7792 H       1  ZINC000341804698    0.0800
     39 H39        -2.6777    2.5128   50.1316 H       1  ZINC000341804698    0.1100
     40 H40        -2.8063    3.0872   47.7546 H       1  ZINC000341804698    0.1000
     41 H41        -3.1739    1.3557   47.9482 H       1  ZINC000341804698    0.0900
@<TRIPOS>BOND
     1     1     2    1
     2     1    25    1
     3     1    26    1
     4     1    27    1
     5     2     3    1
     6     3     4    1
     7     3    28    1
     8     3    29    1
     9     4    24    1
    10     4     5    1
    11     4     7    1
    12     5     6    3
    13     7     8    1
    14     7    30    1
    15     7    31    1
    16     8     9    1
    17     8    32    1
    18     8    33    1
    19     9    10   am
    20     9    23    1
    21    10    11    2
    22    10    12    1
    23    12    22   ar
    24    12    13   ar
    25    13    14   ar
    26    13    34    1
    27    14    15   ar
    28    14    35    1
    29    15    16   ar
    30    15    36    1
    31    16    17    1
    32    16    22   ar
    33    17    18    1
    34    18    19    1
    35    18    20    1
    36    18    21    1
    37    22    37    1
    38    23    24    1
    39    23    38    1
    40    23    39    1
    41    24    40    1
    42    24    41    1
@<TRIPOS>SUBSTRUCTURE
     1 ZINC000341804698        1 TEMP              0 ****  ****    0 ROOT


##########                                Name:    ZINC000742270208
##########                DOCK_Rotatable_Bonds:                   5
##########                         Heavy_Atoms:                  25
##########                    Molecular_Weight:             376.328
##########                DOCK_Rotatable_Bonds:                   5
##########                       Formal_Charge:                0.02
##########                     HBond_Acceptors:                   9
##########                        HBond_Donors:                   0
##########                         Heavy_Atoms:                  25
##########                          Grid_Score:          -27.269129
##########                     Grid_vdw_energy:          -26.982740
##########                      Grid_es_energy:           -0.286389
##########           Internal_energy_repulsive:           12.700641

@<TRIPOS>MOLECULE
ZINC000742270208
 37 38 1 0 0
SMALL
USER_CHARGES


@<TRIPOS>ATOM
      1 C1         -6.8063    0.4535   67.6705 C.3     1  ZINC000742270208   -0.1400
      2 C2         -7.4482   -0.0052   66.3595 C.3     1  ZINC000742270208   -0.1400
      3 C3         -8.8926   -0.4358   66.6222 C.3     1  ZINC000742270208   -0.1400
      4 C4         -7.4347    1.1307   65.3693 C.2     1  ZINC000742270208    0.4000
      5 O5         -7.3581    2.2756   65.7610 O.2     1  ZINC000742270208   -0.4300
      6 C6         -7.5145    0.8503   63.9268 C.ar    1  ZINC000742270208   -0.1000
      7 C7         -7.4281    1.8955   63.0018 C.ar    1  ZINC000742270208   -0.0900
      8 C8         -7.5038    1.6247   61.6518 C.ar    1  ZINC000742270208   -0.0200
      9 C9         -7.6651    0.3225   61.2116 C.ar    1  ZINC000742270208   -0.6800
     10 S10        -7.7606   -0.0132   59.4845 S.o2    1  ZINC000742270208    2.6600
     11 O11        -6.7251    0.7421   58.8711 O.2     1  ZINC000742270208   -0.9300
     12 O12        -7.8748   -1.4237   59.3556 O.2     1  ZINC000742270208   -0.9000
     13 O13        -9.0735    0.5718   58.9838 O.3     1  ZINC000742270208   -0.6400
     14 C14        -9.5652   -0.0421   57.8742 C.ar    1  ZINC000742270208    0.0500
     15 C15       -10.4341   -1.1170   58.0021 C.ar    1  ZINC000742270208    0.0900
     16 F16       -10.7921   -1.5545   59.2291 F       1  ZINC000742270208   -0.0900
     17 C17       -10.9341   -1.7407   56.8706 C.ar    1  ZINC000742270208    0.1100
     18 F18       -11.7798   -2.7869   56.9945 F       1  ZINC000742270208   -0.1000
     19 C19       -10.5683   -1.2922   55.6130 C.ar    1  ZINC000742270208   -0.1100
     20 C20        -9.7015   -0.2205   55.4834 C.ar    1  ZINC000742270208    0.1200
     21 F21        -9.3458    0.2154   54.2551 F       1  ZINC000742270208   -0.1000
     22 C22        -9.2033    0.4092   56.6124 C.ar    1  ZINC000742270208    0.1200
     23 F23        -8.3579    1.4552   56.4854 F       1  ZINC000742270208   -0.0900
     24 C24        -7.7513   -0.7174   62.1208 C.ar    1  ZINC000742270208   -0.0300
     25 C25        -7.6712   -0.4636   63.4738 C.ar    1  ZINC000742270208   -0.0800
     26 H26        -6.8160   -0.3681   68.3868 H       1  ZINC000742270208    0.0700
     27 H27        -5.7773    0.7602   67.4833 H       1  ZINC000742270208    0.0600
     28 H28        -7.3684    1.2951   68.0753 H       1  ZINC000742270208    0.0600
     29 H29        -6.8861   -0.8468   65.9547 H       1  ZINC000742270208    0.1000
     30 H30        -9.4547    0.4058   67.0270 H       1  ZINC000742270208    0.0700
     31 H31        -9.3500   -0.7624   65.6883 H       1  ZINC000742270208    0.0600
     32 H32        -8.9024   -1.2574   67.3385 H       1  ZINC000742270208    0.0700
     33 H33        -7.3030    2.9123   63.3438 H       1  ZINC000742270208    0.1500
     34 H34        -7.4374    2.4308   60.9362 H       1  ZINC000742270208    0.1500
     35 H35       -10.9593   -1.7791   54.7319 H       1  ZINC000742270208    0.1900
     36 H36        -7.8772   -1.7309   61.7696 H       1  ZINC000742270208    0.1500
     37 H37        -7.7386   -1.2761   64.1821 H       1  ZINC000742270208    0.1500
@<TRIPOS>BOND
     1     1     2    1
     2     1    26    1
     3     1    27    1
     4     1    28    1
     5     2     3    1
     6     2     4    1
     7     2    29    1
     8     3    30    1
     9     3    31    1
    10     3    32    1
    11     4     5    2
    12     4     6    1
    13     6    25   ar
    14     6     7   ar
    15     7     8   ar
    16     7    33    1
    17     8     9   ar
    18     8    34    1
    19     9    10    1
    20     9    24   ar
    21    10    11    2
    22    10    12    2
    23    10    13    1
    24    13    14    1
    25    14    22   ar
    26    14    15   ar
    27    15    16    1
    28    15    17   ar
    29    17    18    1
    30    17    19   ar
    31    19    20   ar
    32    19    35    1
    33    20    21    1
    34    20    22   ar
    35    22    23    1
    36    24    25   ar
    37    24    36    1
    38    25    37    1
@<TRIPOS>SUBSTRUCTURE
     1 ZINC000742270208        1 TEMP              0 ****  ****    0 ROOT


##########                                Name:    ZINC000648570180
##########                DOCK_Rotatable_Bonds:                   4
##########                         Heavy_Atoms:                  25
##########                    Molecular_Weight:             342.484
##########                DOCK_Rotatable_Bonds:                   4
##########                       Formal_Charge:          0.00999971
##########                     HBond_Acceptors:                   5
##########                        HBond_Donors:                   0
##########                         Heavy_Atoms:                  25
##########                          Grid_Score:          -27.268606
##########                     Grid_vdw_energy:          -26.522532
##########                      Grid_es_energy:           -0.746074
##########           Internal_energy_repulsive:           81.242859

@<TRIPOS>MOLECULE
ZINC000648570180
 55 58 1 0 0
SMALL
USER_CHARGES


@<TRIPOS>ATOM
      1 C1         -1.2176    2.4655   45.6178 C.3     1  ZINC000648570180   -0.1500
      2 C2         -0.2489    1.3579   46.0372 C.3     1  ZINC000648570180   -0.0600
      3 C3         -0.8142   -0.0085   45.6443 C.3     1  ZINC000648570180   -0.1400
      4 C4          1.1241    1.5752   45.3683 C.3     1  ZINC000648570180   -0.1200
      5 C5          2.1458    1.1442   46.4497 C.3     1  ZINC000648570180   -0.1300
      6 C6          1.4977    1.6617   47.7579 C.3     1  ZINC000648570180   -0.1200
      7 C7         -0.0113    1.4129   47.5565 C.3     1  ZINC000648570180   -0.0700
      8 H8         -0.2979    0.4658   48.0138 H       1  ZINC000648570180    0.0800
      9 C9         -0.8181    2.5573   48.1731 C.3     1  ZINC000648570180   -0.1000
     10 H10        -0.7736    3.4469   47.5447 H       1  ZINC000648570180    0.1000
     11 C11        -2.2875    2.1285   48.4266 C.3     1  ZINC000648570180   -0.1400
     12 C12        -2.7184    3.0433   49.5925 C.3     1  ZINC000648570180    0.1200
     13 N13        -1.4941    3.4834   50.2774 N.am    1  ZINC000648570180   -0.6000
     14 C14        -1.4426    4.3116   51.3394 C.2     1  ZINC000648570180    0.5800
     15 O15        -0.3701    4.6095   51.8259 O.2     1  ZINC000648570180   -0.5200
     16 C16        -2.6967    4.8599   51.9146 C.ar    1  ZINC000648570180    0.1600
     17 C17        -3.3735    5.8986   51.2761 C.ar    1  ZINC000648570180   -0.2000
     18 C18        -4.5423    6.3781   51.8517 C.ar    1  ZINC000648570180    0.1800
     19 N19        -4.9748    5.8401   52.9780 N.ar    1  ZINC000648570180   -0.5400
     20 C20        -4.3095    4.8531   53.5620 C.ar    1  ZINC000648570180    0.4800
     21 N21        -4.7968    4.3171   54.7416 N.3     1  ZINC000648570180   -0.4400
     22 C22        -4.3371    2.9159   54.9197 C.3     1  ZINC000648570180    0.0500
     23 C23        -4.5049    2.6784   56.4415 C.3     1  ZINC000648570180   -0.1200
     24 C24        -4.0992    4.0401   57.0507 C.3     1  ZINC000648570180   -0.1300
     25 C25        -4.2854    5.0611   55.9131 C.3     1  ZINC000648570180    0.0400
     26 N26        -3.1949    4.3638   53.0445 N.ar    1  ZINC000648570180   -0.5000
     27 C27        -0.3315    2.8683   49.6105 C.3     1  ZINC000648570180    0.1100
     28 H28        -0.8612    3.4229   45.9978 H       1  ZINC000648570180    0.0600
     29 H29        -1.2751    2.5051   44.5300 H       1  ZINC000648570180    0.0500
     30 H30        -2.2063    2.2576   46.0267 H       1  ZINC000648570180    0.0700
     31 H31        -0.9674   -0.0418   44.5656 H       1  ZINC000648570180    0.0500
     32 H32        -0.1120   -0.7896   45.9358 H       1  ZINC000648570180    0.0500
     33 H33        -1.7657   -0.1677   46.1515 H       1  ZINC000648570180    0.0500
     34 H34         1.2198    0.9485   44.4816 H       1  ZINC000648570180    0.0600
     35 H35         1.2610    2.6255   45.1109 H       1  ZINC000648570180    0.0700
     36 H36         2.2495    0.0594   46.4727 H       1  ZINC000648570180    0.0700
     37 H37         3.1109    1.6222   46.2814 H       1  ZINC000648570180    0.0700
     38 H38         1.8662    1.0981   48.6150 H       1  ZINC000648570180    0.0700
     39 H39         1.6951    2.7259   47.8864 H       1  ZINC000648570180    0.0700
     40 H40        -2.9008    2.3131   47.5447 H       1  ZINC000648570180    0.0900
     41 H41        -2.3380    1.0800   48.7202 H       1  ZINC000648570180    0.0800
     42 H42        -3.2577    3.9078   49.2055 H       1  ZINC000648570180    0.0800
     43 H43        -3.3513    2.4883   50.2848 H       1  ZINC000648570180    0.0700
     44 H44        -2.9971    6.3204   50.3558 H       1  ZINC000648570180    0.1600
     45 H45        -5.0915    7.1819   51.3841 H       1  ZINC000648570180    0.1800
     46 H46        -4.9653    2.2298   54.3516 H       1  ZINC000648570180    0.1000
     47 H47        -3.2920    2.8139   54.6272 H       1  ZINC000648570180    0.0500
     48 H48        -5.5409    2.4411   56.6829 H       1  ZINC000648570180    0.0800
     49 H49        -3.8371    1.8881   56.7844 H       1  ZINC000648570180    0.0800
     50 H50        -4.7483    4.2872   57.8908 H       1  ZINC000648570180    0.0800
     51 H51        -3.0575    4.0161   57.3708 H       1  ZINC000648570180    0.0700
     52 H52        -3.3293    5.5246   55.6700 H       1  ZINC000648570180    0.0900
     53 H53        -5.0051    5.8232   56.2121 H       1  ZINC000648570180    0.0900
     54 H54        -0.0444    1.9486   50.1203 H       1  ZINC000648570180    0.0700
     55 H55         0.5052    3.5664   49.5863 H       1  ZINC000648570180    0.0800
@<TRIPOS>BOND
     1     1     2    1
     2     1    28    1
     3     1    29    1
     4     1    30    1
     5     2     7    1
     6     2     3    1
     7     2     4    1
     8     3    31    1
     9     3    32    1
    10     3    33    1
    11     4     5    1
    12     4    34    1
    13     4    35    1
    14     5     6    1
    15     5    36    1
    16     5    37    1
    17     6     7    1
    18     6    38    1
    19     6    39    1
    20     7     8    1
    21     7     9    1
    22     9    10    1
    23     9    27    1
    24     9    11    1
    25    11    12    1
    26    11    40    1
    27    11    41    1
    28    12    13    1
    29    12    42    1
    30    12    43    1
    31    13    14   am
    32    13    27    1
    33    14    15    2
    34    14    16    1
    35    16    26   ar
    36    16    17   ar
    37    17    18   ar
    38    17    44    1
    39    18    19   ar
    40    18    45    1
    41    19    20   ar
    42    20    21    1
    43    20    26   ar
    44    21    25    1
    45    21    22    1
    46    22    23    1
    47    22    46    1
    48    22    47    1
    49    23    24    1
    50    23    48    1
    51    23    49    1
    52    24    25    1
    53    24    50    1
    54    24    51    1
    55    25    52    1
    56    25    53    1
    57    27    54    1
    58    27    55    1
@<TRIPOS>SUBSTRUCTURE
     1 ZINC000648570180        1 TEMP              0 ****  ****    0 ROOT


##########                                Name:    ZINC001708427409
##########                DOCK_Rotatable_Bonds:                   6
##########                         Heavy_Atoms:                  24
##########                    Molecular_Weight:             334.505
##########                DOCK_Rotatable_Bonds:                   6
##########                       Formal_Charge:          -0.0200006
##########                     HBond_Acceptors:                   5
##########                        HBond_Donors:                   1
##########                         Heavy_Atoms:                  24
##########                          Grid_Score:          -27.228430
##########                     Grid_vdw_energy:          -27.282928
##########                      Grid_es_energy:            0.054499
##########           Internal_energy_repulsive:           19.259094

@<TRIPOS>MOLECULE
ZINC001708427409
 58 60 1 0 0
SMALL
USER_CHARGES


@<TRIPOS>ATOM
      1 C1         -3.0515    2.7392   55.2791 C.3     1  ZINC001708427409   -0.1500
      2 C2         -3.5042    3.3343   53.9444 C.3     1  ZINC001708427409   -0.1200
      3 C3         -2.4430    4.3120   53.4358 C.3     1  ZINC001708427409    0.0000
      4 H4         -1.4786    4.0647   53.8796 H       1  ZINC001708427409    0.0800
      5 C5         -2.8339    5.7384   53.8279 C.3     1  ZINC001708427409   -0.1400
      6 C6         -2.3458    4.2123   51.9353 C.2     1  ZINC001708427409    0.1800
      7 N7         -3.2023    4.6822   51.0730 N.2     1  ZINC001708427409   -0.2800
      8 N8         -2.8114    4.4215   49.8767 N.2     1  ZINC001708427409   -0.3200
      9 C9         -1.6753    3.7658   49.9118 C.2     1  ZINC001708427409    0.3600
     10 N10        -0.9502    3.3151   48.8202 N.3     1  ZINC001708427409   -0.4200
     11 C11        -0.5478    4.4485   47.9419 C.3     1  ZINC001708427409    0.0400
     12 C12        -0.2836    3.8041   46.5634 C.3     1  ZINC001708427409   -0.0900
     13 H13         0.7819    3.6170   46.4308 H       1  ZINC001708427409    0.0900
     14 C14        -0.8070    4.7076   45.4451 C.3     1  ZINC001708427409   -0.1500
     15 C15        -1.0674    2.4645   46.5887 C.3     1  ZINC001708427409   -0.0800
     16 H16        -1.7768    2.4087   45.7632 H       1  ZINC001708427409    0.0900
     17 C17        -0.0366    1.3385   46.5026 C.3     1  ZINC001708427409   -0.1100
     18 C18        -0.7010    0.0031   46.8363 C.3     1  ZINC001708427409   -0.1200
     19 C19        -1.1435    0.0344   48.2976 C.3     1  ZINC001708427409   -0.1100
     20 C20        -2.1394    1.1521   48.5315 C.3     1  ZINC001708427409   -0.1000
     21 C21        -1.7908    2.4826   47.9328 C.3     1  ZINC001708427409    0.1000
     22 H22        -2.7253    3.0259   47.7928 H       1  ZINC001708427409    0.0600
     23 N23        -1.3397    3.6170   51.2260 N.pl3   1  ZINC001708427409   -0.4700
     24 C24        -0.1525    2.9492   51.7655 C.3     1  ZINC001708427409    0.0800
     25 C25         1.0440    3.9000   51.6944 C.3     1  ZINC001708427409    0.1200
     26 C26         0.5660    5.3380   51.9066 C.3     1  ZINC001708427409   -0.1800
     27 C27         2.0533    3.5321   52.7837 C.3     1  ZINC001708427409   -0.1500
     28 O28         1.6653    3.7889   50.4122 O.3     1  ZINC001708427409   -0.5400
     29 H29        -2.9164    3.5394   56.0067 H       1  ZINC001708427409    0.0600
     30 H30        -3.8076    2.0426   55.6414 H       1  ZINC001708427409    0.0600
     31 H31        -2.1081    2.2113   55.1402 H       1  ZINC001708427409    0.0500
     32 H32        -3.6394    2.5341   53.2168 H       1  ZINC001708427409    0.0700
     33 H33        -4.4477    3.8622   54.0833 H       1  ZINC001708427409    0.0800
     34 H34        -2.9041    5.8106   54.9131 H       1  ZINC001708427409    0.0700
     35 H35        -2.0778    6.4349   53.4655 H       1  ZINC001708427409    0.0500
     36 H36        -3.7982    5.9858   53.3840 H       1  ZINC001708427409    0.0700
     37 H37        -1.3539    5.1788   47.8712 H       1  ZINC001708427409    0.0600
     38 H38         0.3595    4.9189   48.3210 H       1  ZINC001708427409    0.0800
     39 H39        -0.2821    5.6624   45.4738 H       1  ZINC001708427409    0.0600
     40 H40        -0.6369    4.2283   44.4811 H       1  ZINC001708427409    0.0600
     41 H41        -1.8750    4.8758   45.5838 H       1  ZINC001708427409    0.0600
     42 H42         0.3721    1.2976   45.4929 H       1  ZINC001708427409    0.0600
     43 H43         0.7691    1.5296   47.2114 H       1  ZINC001708427409    0.0700
     44 H44        -1.5690   -0.1447   46.1940 H       1  ZINC001708427409    0.0600
     45 H45         0.0116   -0.8080   46.6867 H       1  ZINC001708427409    0.0600
     46 H46        -1.6066   -0.9185   48.5530 H       1  ZINC001708427409    0.0600
     47 H47        -0.2720    0.1913   48.9333 H       1  ZINC001708427409    0.0600
     48 H48        -3.1002    0.8450   48.1184 H       1  ZINC001708427409    0.0600
     49 H49        -2.2613    1.2810   49.6069 H       1  ZINC001708427409    0.0700
     50 H50        -0.3331    2.6694   52.8034 H       1  ZINC001708427409    0.0900
     51 H51         0.0589    2.0546   51.1796 H       1  ZINC001708427409    0.1000
     52 H52         0.0922    5.4227   52.8845 H       1  ZINC001708427409    0.0700
     53 H53         1.4185    6.0154   51.8558 H       1  ZINC001708427409    0.0700
     54 H54        -0.1530    5.6001   51.1305 H       1  ZINC001708427409    0.0600
     55 H55         2.3314    2.4831   52.6821 H       1  ZINC001708427409    0.0700
     56 H56         2.9419    4.1552   52.6813 H       1  ZINC001708427409    0.0700
     57 H57         1.6058    3.6960   53.7641 H       1  ZINC001708427409    0.0700
     58 H58         1.0704    3.9649   49.6704 H       1  ZINC001708427409    0.3800
@<TRIPOS>BOND
     1     1     2    1
     2     1    29    1
     3     1    30    1
     4     1    31    1
     5     2     3    1
     6     2    32    1
     7     2    33    1
     8     3     4    1
     9     3     5    1
    10     3     6    1
    11     5    34    1
    12     5    35    1
    13     5    36    1
    14     6    23    1
    15     6     7    2
    16     7     8    1
    17     8     9    2
    18     9    10    1
    19     9    23    1
    20    10    21    1
    21    10    11    1
    22    11    12    1
    23    11    37    1
    24    11    38    1
    25    12    13    1
    26    12    14    1
    27    12    15    1
    28    14    39    1
    29    14    40    1
    30    14    41    1
    31    15    16    1
    32    15    21    1
    33    15    17    1
    34    17    18    1
    35    17    42    1
    36    17    43    1
    37    18    19    1
    38    18    44    1
    39    18    45    1
    40    19    20    1
    41    19    46    1
    42    19    47    1
    43    20    21    1
    44    20    48    1
    45    20    49    1
    46    21    22    1
    47    23    24    1
    48    24    25    1
    49    24    50    1
    50    24    51    1
    51    25    26    1
    52    25    27    1
    53    25    28    1
    54    26    52    1
    55    26    53    1
    56    26    54    1
    57    27    55    1
    58    27    56    1
    59    27    57    1
    60    28    58    1
@<TRIPOS>SUBSTRUCTURE
     1 ZINC001708427409        1 TEMP              0 ****  ****    0 ROOT


##########                                Name:    ZINC000426567005
##########                DOCK_Rotatable_Bonds:                   9
##########                         Heavy_Atoms:                  31
##########                    Molecular_Weight:             417.467
##########                DOCK_Rotatable_Bonds:                   9
##########                       Formal_Charge:        -2.23517e-07
##########                     HBond_Acceptors:                   8
##########                        HBond_Donors:                   4
##########                         Heavy_Atoms:                  31
##########                          Grid_Score:          -27.211895
##########                     Grid_vdw_energy:          -25.941092
##########                      Grid_es_energy:           -1.270803
##########           Internal_energy_repulsive:           16.891092

@<TRIPOS>MOLECULE
ZINC000426567005
 54 57 1 0 0
SMALL
USER_CHARGES


@<TRIPOS>ATOM
      1 O1         -4.0540    1.6892   50.5554 O.2     1  ZINC000426567005   -0.4900
      2 C2         -3.3274    2.6367   50.3369 C.2     1  ZINC000426567005    0.5200
      3 N3         -3.4249    3.7489   51.0919 N.am    1  ZINC000426567005   -0.6000
      4 C4         -4.3677    3.8136   52.1238 C.2     1  ZINC000426567005    0.3000
      5 N5         -5.2116    2.8651   52.4581 N.2     1  ZINC000426567005   -0.3100
      6 N6         -5.9793    3.3239   53.5362 N.pl3   1  ZINC000426567005   -0.4600
      7 C7         -5.5712    4.5747   53.8382 C.2     1  ZINC000426567005    0.1100
      8 C8         -6.1249    5.4480   54.9345 C.3     1  ZINC000426567005   -0.0300
      9 C9         -7.5787    5.0355   55.2740 C.3     1  ZINC000426567005   -0.1200
     10 C10        -7.7518    5.5549   56.7229 C.3     1  ZINC000426567005   -0.1300
     11 C11        -6.3847    5.2887   57.3861 C.3     1  ZINC000426567005   -0.1300
     12 C12        -5.3502    5.2207   56.2490 C.3     1  ZINC000426567005   -0.1200
     13 C13        -4.5729    4.9024   52.9871 C.2     1  ZINC000426567005   -0.2600
     14 C14        -2.3217    2.5678   49.2362 C.2     1  ZINC000426567005    0.5200
     15 O15        -1.8618    3.5894   48.7694 O.2     1  ZINC000426567005   -0.4900
     16 N16        -1.9242    1.3710   48.7605 N.am    1  ZINC000426567005   -0.6400
     17 C17        -0.9858    1.3066   47.7335 C.ar    1  ZINC000426567005    0.1700
     18 C18         0.3343    0.9703   48.0190 C.ar    1  ZINC000426567005   -0.1300
     19 C19         1.2642    0.9058   47.0061 C.ar    1  ZINC000426567005   -0.0300
     20 C20         0.8815    1.1780   45.6897 C.ar    1  ZINC000426567005   -0.1500
     21 C21         1.8758    1.1093   44.6013 C.2     1  ZINC000426567005    0.5600
     22 O22         3.0374    0.8539   44.8543 O.2     1  ZINC000426567005   -0.5100
     23 N23         1.4963    1.3297   43.3270 N.am    1  ZINC000426567005   -0.6700
     24 C24         2.4385    1.2646   42.2956 C.ar    1  ZINC000426567005    0.1400
     25 C25         2.2772    0.3507   41.2623 C.ar    1  ZINC000426567005   -0.1500
     26 C26         3.2092    0.2893   40.2449 C.ar    1  ZINC000426567005   -0.1000
     27 C27         4.3021    1.1364   40.2544 C.ar    1  ZINC000426567005   -0.1300
     28 C28         4.4659    2.0472   41.2820 C.ar    1  ZINC000426567005   -0.1000
     29 C29         3.5346    2.1177   42.2993 C.ar    1  ZINC000426567005   -0.1200
     30 C30        -0.4449    1.5150   45.4062 C.ar    1  ZINC000426567005   -0.0600
     31 C31        -1.3712    1.5731   46.4229 C.ar    1  ZINC000426567005   -0.1400
     32 H32        -2.8414    4.5045   50.9200 H       1  ZINC000426567005    0.4300
     33 H33        -6.6815    2.8292   53.9869 H       1  ZINC000426567005    0.4400
     34 H34        -6.0822    6.4975   54.6430 H       1  ZINC000426567005    0.1100
     35 H35        -8.2854    5.5224   54.6020 H       1  ZINC000426567005    0.0800
     36 H36        -7.6916    3.9520   55.2361 H       1  ZINC000426567005    0.0700
     37 H37        -7.9738    6.6220   56.7216 H       1  ZINC000426567005    0.0700
     38 H38        -8.5387    5.0013   57.2352 H       1  ZINC000426567005    0.0700
     39 H39        -6.1363    6.1014   58.0687 H       1  ZINC000426567005    0.0700
     40 H40        -6.4094    4.3418   57.9255 H       1  ZINC000426567005    0.0700
     41 H41        -4.8730    4.2408   56.2365 H       1  ZINC000426567005    0.0600
     42 H42        -4.5998    6.0004   56.3797 H       1  ZINC000426567005    0.0700
     43 H43        -4.0339    5.8380   52.9696 H       1  ZINC000426567005    0.1700
     44 H44        -2.2918    0.5544   49.1335 H       1  ZINC000426567005    0.4300
     45 H45         0.6294    0.7600   49.0364 H       1  ZINC000426567005    0.1500
     46 H46         2.2885    0.6455   47.2284 H       1  ZINC000426567005    0.1400
     47 H47         0.5697    1.5335   43.1252 H       1  ZINC000426567005    0.4100
     48 H48         1.4240   -0.3115   41.2545 H       1  ZINC000426567005    0.1300
     49 H49         3.0845   -0.4215   39.4414 H       1  ZINC000426567005    0.1300
     50 H50         5.0296    1.0864   39.4577 H       1  ZINC000426567005    0.1200
     51 H51         5.3209    2.7070   41.2868 H       1  ZINC000426567005    0.1300
     52 H52         3.6628    2.8294   43.1014 H       1  ZINC000426567005    0.1300
     53 H53        -0.7437    1.7263   44.3901 H       1  ZINC000426567005    0.1300
     54 H54        -2.3964    1.8335   46.2045 H       1  ZINC000426567005    0.1400
@<TRIPOS>BOND
     1     1     2    2
     2     2     3   am
     3     2    14    1
     4     3     4    1
     5     3    32    1
     6     4    13    1
     7     4     5    2
     8     5     6    1
     9     6     7    1
    10     6    33    1
    11     7     8    1
    12     7    13    2
    13     8    12    1
    14     8     9    1
    15     8    34    1
    16     9    10    1
    17     9    35    1
    18     9    36    1
    19    10    11    1
    20    10    37    1
    21    10    38    1
    22    11    12    1
    23    11    39    1
    24    11    40    1
    25    12    41    1
    26    12    42    1
    27    13    43    1
    28    14    15    2
    29    14    16   am
    30    16    17    1
    31    16    44    1
    32    17    31   ar
    33    17    18   ar
    34    18    19   ar
    35    18    45    1
    36    19    20   ar
    37    19    46    1
    38    20    21    1
    39    20    30   ar
    40    21    22    2
    41    21    23   am
    42    23    24    1
    43    23    47    1
    44    24    29   ar
    45    24    25   ar
    46    25    26   ar
    47    25    48    1
    48    26    27   ar
    49    26    49    1
    50    27    28   ar
    51    27    50    1
    52    28    29   ar
    53    28    51    1
    54    29    52    1
    55    30    31   ar
    56    30    53    1
    57    31    54    1
@<TRIPOS>SUBSTRUCTURE
     1 ZINC000426567005        1 TEMP              0 ****  ****    0 ROOT


##########                                Name:    ZINC000768148687
##########                DOCK_Rotatable_Bonds:                   8
##########                         Heavy_Atoms:                  25
##########                    Molecular_Weight:             371.307
##########                DOCK_Rotatable_Bonds:                   8
##########                       Formal_Charge:         2.98023e-08
##########                     HBond_Acceptors:                  11
##########                        HBond_Donors:                   0
##########                         Heavy_Atoms:                  25
##########                          Grid_Score:          -27.183403
##########                     Grid_vdw_energy:          -24.927364
##########                      Grid_es_energy:           -2.256038
##########           Internal_energy_repulsive:           10.415373

@<TRIPOS>MOLECULE
ZINC000768148687
 43 44 1 0 0
SMALL
USER_CHARGES


@<TRIPOS>ATOM
      1 C1        -10.3590    0.4227   53.2077 C.3     1  ZINC000768148687   -0.1800
      2 C2         -9.6665   -0.8018   53.8090 C.3     1  ZINC000768148687    0.1100
      3 N3        -10.3553   -1.1970   55.0401 N.pl3   1  ZINC000768148687   -0.3100
      4 N4        -11.3601   -2.1658   55.1397 N.2     1  ZINC000768148687   -0.2000
      5 C5        -11.7406   -2.2540   56.3841 C.2     1  ZINC000768148687    0.0200
      6 C6        -12.8027   -3.1778   56.9222 C.3     1  ZINC000768148687    0.5500
      7 F7        -13.6645   -2.4605   57.7589 F       1  ZINC000768148687   -0.1600
      8 F8        -13.5309   -3.7209   55.8583 F       1  ZINC000768148687   -0.1600
      9 F9        -12.1989   -4.2095   57.6489 F       1  ZINC000768148687   -0.1500
     10 C10       -10.9823   -1.3309   57.1396 C.2     1  ZINC000768148687   -0.1800
     11 C11       -11.0835   -1.0956   58.5900 C.2     1  ZINC000768148687    0.5300
     12 O12       -11.5631   -0.0591   59.0054 O.2     1  ZINC000768148687   -0.4700
     13 O13       -10.6444   -2.0296   59.4565 O.3     1  ZINC000768148687   -0.3400
     14 C14       -10.5592   -1.6443   60.8538 C.3     1  ZINC000768148687    0.0200
     15 C15        -9.2304   -0.9289   61.1054 C.3     1  ZINC000768148687    0.0600
     16 N16        -9.0580   -0.7089   62.5475 N.3     1  ZINC000768148687   -0.5300
     17 C17       -10.0359    0.2657   63.0525 C.3     1  ZINC000768148687    0.0100
     18 C18        -9.8601    0.4200   64.5655 C.3     1  ZINC000768148687    0.0600
     19 O19        -8.5130    0.8093   64.8466 O.3     1  ZINC000768148687   -0.3800
     20 C20        -7.5343   -0.1178   64.3693 C.3     1  ZINC000768148687    0.0600
     21 C21        -7.6864   -0.2775   62.8543 C.3     1  ZINC000768148687    0.0100
     22 C22       -10.1245   -0.6950   56.2634 C.2     1  ZINC000768148687    0.0600
     23 C23        -9.1212    0.3732   56.6145 C.3     1  ZINC000768148687    0.3400
     24 F24        -9.7825    1.5929   56.7947 F       1  ZINC000768148687   -0.1700
     25 F25        -8.4604    0.0220   57.7965 F       1  ZINC000768148687   -0.1800
     26 H26        -9.8465    0.7167   52.2917 H       1  ZINC000768148687    0.0900
     27 H27       -11.3969    0.1784   52.9810 H       1  ZINC000768148687    0.0700
     28 H28       -10.3271    1.2454   53.9220 H       1  ZINC000768148687    0.0700
     29 H29        -9.6984   -1.6246   53.0948 H       1  ZINC000768148687    0.1100
     30 H30        -8.6287   -0.5576   54.0357 H       1  ZINC000768148687    0.1200
     31 H31       -11.3841   -0.9747   61.0970 H       1  ZINC000768148687    0.0800
     32 H32       -10.6169   -2.5344   61.4803 H       1  ZINC000768148687    0.0800
     33 H33        -8.4109   -1.5424   60.7309 H       1  ZINC000768148687    0.1100
     34 H34        -9.2310    0.0309   60.5889 H       1  ZINC000768148687    0.0900
     35 H35        -9.8741    1.2283   62.5673 H       1  ZINC000768148687    0.0500
     36 H36       -11.0449   -0.0861   62.8372 H       1  ZINC000768148687    0.0900
     37 H37       -10.5445    1.1835   64.9354 H       1  ZINC000768148687    0.1000
     38 H38       -10.0743   -0.5299   65.0554 H       1  ZINC000768148687    0.0600
     39 H39        -6.5364    0.2568   64.5974 H       1  ZINC000768148687    0.1000
     40 H40        -7.6808   -1.0833   64.8535 H       1  ZINC000768148687    0.0600
     41 H41        -6.9804   -1.0258   62.4945 H       1  ZINC000768148687    0.0800
     42 H42        -7.4871    0.6765   62.3660 H       1  ZINC000768148687    0.0700
     43 H43        -8.3952    0.4694   55.8072 H       1  ZINC000768148687    0.1500
@<TRIPOS>BOND
     1     1     2    1
     2     1    26    1
     3     1    27    1
     4     1    28    1
     5     2     3    1
     6     2    29    1
     7     2    30    1
     8     3    22    1
     9     3     4    1
    10     4     5    2
    11     5     6    1
    12     5    10    1
    13     6     7    1
    14     6     8    1
    15     6     9    1
    16    10    11    1
    17    10    22    2
    18    11    12    2
    19    11    13    1
    20    13    14    1
    21    14    15    1
    22    14    31    1
    23    14    32    1
    24    15    16    1
    25    15    33    1
    26    15    34    1
    27    16    21    1
    28    16    17    1
    29    17    18    1
    30    17    35    1
    31    17    36    1
    32    18    19    1
    33    18    37    1
    34    18    38    1
    35    19    20    1
    36    20    21    1
    37    20    39    1
    38    20    40    1
    39    21    41    1
    40    21    42    1
    41    22    23    1
    42    23    24    1
    43    23    25    1
    44    23    43    1
@<TRIPOS>SUBSTRUCTURE
     1 ZINC000768148687        1 TEMP              0 ****  ****    0 ROOT


##########                                Name:    ZINC000467104849
##########                DOCK_Rotatable_Bonds:                   6
##########                         Heavy_Atoms:                  29
##########                    Molecular_Weight:             421.896
##########                DOCK_Rotatable_Bonds:                   6
##########                       Formal_Charge:           0.0200002
##########                     HBond_Acceptors:                   7
##########                        HBond_Donors:                   0
##########                         Heavy_Atoms:                  29
##########                          Grid_Score:          -27.159622
##########                     Grid_vdw_energy:          -27.088369
##########                      Grid_es_energy:           -0.071253
##########           Internal_energy_repulsive:           68.797379

@<TRIPOS>MOLECULE
ZINC000467104849
 54 56 1 0 0
SMALL
USER_CHARGES


@<TRIPOS>ATOM
      1 C1        -10.7208   -0.9659   53.0664 C.3     1  ZINC000467104849    0.0200
      2 O2        -11.5506   -0.1703   53.9152 O.3     1  ZINC000467104849   -0.3000
      3 C3        -10.9656    0.3755   55.0149 C.ar    1  ZINC000467104849    0.1000
      4 C4         -9.6280    0.1340   55.2817 C.ar    1  ZINC000467104849   -0.1700
      5 C5         -9.0346    0.6901   56.4000 C.ar    1  ZINC000467104849   -0.1200
      6 C6         -9.7734    1.4869   57.2541 C.ar    1  ZINC000467104849   -0.0800
      7 C7         -9.1219    2.0900   58.4718 C.3     1  ZINC000467104849   -0.0400
      8 C8         -8.3640    3.3570   58.0700 C.3     1  ZINC000467104849   -0.1300
      9 C9        -10.1958    2.4435   59.5025 C.3     1  ZINC000467104849   -0.1600
     10 C10        -8.1589    1.0971   59.0700 C.2     1  ZINC000467104849    0.5300
     11 O11        -7.0342    1.4439   59.3630 O.2     1  ZINC000467104849   -0.5300
     12 N12        -8.5475   -0.1763   59.2793 N.am    1  ZINC000467104849   -0.6100
     13 C13        -7.6250   -1.1636   59.8621 C.3     1  ZINC000467104849    0.0600
     14 C14        -8.3342   -1.8570   61.0309 C.3     1  ZINC000467104849    0.0500
     15 O15        -9.5984   -2.3546   60.5860 O.3     1  ZINC000467104849   -0.3700
     16 C16       -10.5049   -1.3402   60.1467 C.3     1  ZINC000467104849    0.1300
     17 H17       -10.6669   -0.6232   60.9516 H       1  ZINC000467104849    0.0800
     18 C18       -11.8185   -1.9709   59.7625 C.ar    1  ZINC000467104849   -0.0900
     19 C19       -12.9871   -1.5606   60.3761 C.ar    1  ZINC000467104849   -0.0500
     20 C20       -14.1930   -2.1381   60.0250 C.ar    1  ZINC000467104849   -0.1400
     21 C21       -14.2306   -3.1276   59.0580 C.ar    1  ZINC000467104849    0.1200
     22 F22       -15.4087   -3.6923   58.7139 F       1  ZINC000467104849   -0.1200
     23 C23       -13.0586   -3.5383   58.4429 C.ar    1  ZINC000467104849   -0.0800
     24 Cl24      -13.1031   -4.7793   57.2297 Cl      1  ZINC000467104849   -0.0400
     25 C25       -11.8543   -2.9555   58.7926 C.ar    1  ZINC000467104849   -0.0700
     26 C26        -9.9086   -0.6189   58.9378 C.3     1  ZINC000467104849    0.0900
     27 C27       -11.1091    1.7324   56.9934 C.ar    1  ZINC000467104849   -0.1600
     28 C28       -11.7083    1.1827   55.8718 C.ar    1  ZINC000467104849    0.1100
     29 O29       -13.0218    1.4232   55.6141 O.3     1  ZINC000467104849   -0.3000
     30 C30       -13.7210    2.2616   56.5361 C.3     1  ZINC000467104849    0.0200
     31 H31       -11.3100   -1.3395   52.2289 H       1  ZINC000467104849    0.1000
     32 H32        -9.8981   -0.3582   52.6894 H       1  ZINC000467104849    0.0600
     33 H33       -10.3212   -1.8067   53.6333 H       1  ZINC000467104849    0.0600
     34 H34        -9.0486   -0.4890   54.6163 H       1  ZINC000467104849    0.1400
     35 H35        -7.9916    0.5010   56.6069 H       1  ZINC000467104849    0.1300
     36 H36        -9.0719    4.1081   57.7195 H       1  ZINC000467104849    0.0700
     37 H37        -7.8205    3.7441   58.9319 H       1  ZINC000467104849    0.0700
     38 H38        -7.6595    3.1214   57.2722 H       1  ZINC000467104849    0.0700
     39 H39       -10.6758    1.5305   59.8549 H       1  ZINC000467104849    0.0700
     40 H40        -9.7353    2.9602   60.3445 H       1  ZINC000467104849    0.0700
     41 H41       -10.9416    3.0917   59.0424 H       1  ZINC000467104849    0.0700
     42 H42        -7.3530   -1.9020   59.1077 H       1  ZINC000467104849    0.0800
     43 H43        -6.7284   -0.6599   60.2235 H       1  ZINC000467104849    0.1100
     44 H44        -7.7223   -2.6852   61.3883 H       1  ZINC000467104849    0.1100
     45 H45        -8.4883   -1.1420   61.8391 H       1  ZINC000467104849    0.0600
     46 H46       -12.9580   -0.7885   61.1306 H       1  ZINC000467104849    0.1500
     47 H47       -15.1056   -1.8174   60.5053 H       1  ZINC000467104849    0.1500
     48 H48       -10.9407   -3.2748   58.3134 H       1  ZINC000467104849    0.1500
     49 H49       -10.5243    0.2443   58.6848 H       1  ZINC000467104849    0.1100
     50 H50        -9.8647   -1.3006   58.0884 H       1  ZINC000467104849    0.0800
     51 H51       -11.6842    2.3555   57.6623 H       1  ZINC000467104849    0.1400
     52 H52       -13.6949    1.8113   57.5284 H       1  ZINC000467104849    0.0600
     53 H53       -13.2448    3.2416   56.5691 H       1  ZINC000467104849    0.0600
     54 H54       -14.7565    2.3715   56.2140 H       1  ZINC000467104849    0.1000
@<TRIPOS>BOND
     1     1     2    1
     2     1    31    1
     3     1    32    1
     4     1    33    1
     5     2     3    1
     6     3    28   ar
     7     3     4   ar
     8     4     5   ar
     9     4    34    1
    10     5     6   ar
    11     5    35    1
    12     6     7    1
    13     6    27   ar
    14     7     8    1
    15     7     9    1
    16     7    10    1
    17     8    36    1
    18     8    37    1
    19     8    38    1
    20     9    39    1
    21     9    40    1
    22     9    41    1
    23    10    11    2
    24    10    12   am
    25    12    26    1
    26    12    13    1
    27    13    14    1
    28    13    42    1
    29    13    43    1
    30    14    15    1
    31    14    44    1
    32    14    45    1
    33    15    16    1
    34    16    17    1
    35    16    18    1
    36    16    26    1
    37    18    25   ar
    38    18    19   ar
    39    19    20   ar
    40    19    46    1
    41    20    21   ar
    42    20    47    1
    43    21    22    1
    44    21    23   ar
    45    23    24    1
    46    23    25   ar
    47    25    48    1
    48    26    49    1
    49    26    50    1
    50    27    28   ar
    51    27    51    1
    52    28    29    1
    53    29    30    1
    54    30    52    1
    55    30    53    1
    56    30    54    1
@<TRIPOS>SUBSTRUCTURE
     1 ZINC000467104849        1 TEMP              0 ****  ****    0 ROOT


##########                                Name:    ZINC000482962466
##########                DOCK_Rotatable_Bonds:                   2
##########                         Heavy_Atoms:                  25
##########                    Molecular_Weight:             404.303
##########                DOCK_Rotatable_Bonds:                   2
##########                       Formal_Charge:           0.0200002
##########                     HBond_Acceptors:                   4
##########                        HBond_Donors:                   0
##########                         Heavy_Atoms:                  25
##########                          Grid_Score:          -27.149059
##########                     Grid_vdw_energy:          -25.994154
##########                      Grid_es_energy:           -1.154905
##########           Internal_energy_repulsive:            6.498630

@<TRIPOS>MOLECULE
ZINC000482962466
 47 50 1 0 0
SMALL
USER_CHARGES


@<TRIPOS>ATOM
      1 C1          0.1497   -1.3035   48.4682 C.3     1  ZINC000482962466   -0.1400
      2 C2          0.2400    0.1175   47.9080 C.3     1  ZINC000482962466    0.0700
      3 H3          1.2795    0.3538   47.6809 H       1  ZINC000482962466    0.0700
      4 C4         -0.2968    1.1116   48.9440 C.3     1  ZINC000482962466    0.0800
      5 N5         -0.3741    2.4405   48.3170 N.am    1  ZINC000482962466   -0.6100
      6 C6          0.1648    3.5220   48.9141 C.2     1  ZINC000482962466    0.5600
      7 O7          0.0906    4.6114   48.3798 O.2     1  ZINC000482962466   -0.5200
      8 C8          0.8460    3.3835   50.2179 C.ar    1  ZINC000482962466   -0.1100
      9 C9          2.2467    3.4859   50.2877 C.ar    1  ZINC000482962466   -0.0700
     10 C10         2.8954    3.3623   51.4737 C.ar    1  ZINC000482962466   -0.1000
     11 C11         2.1661    3.1288   52.6539 C.ar    1  ZINC000482962466   -0.0400
     12 C12         2.8153    2.9976   53.8925 C.ar    1  ZINC000482962466   -0.0700
     13 C13         2.0824    2.7720   55.0185 C.ar    1  ZINC000482962466   -0.0800
     14 Br14        2.9625    2.5969   56.6830 Br      1  ZINC000482962466   -0.0400
     15 C15         0.6927    2.6688   54.9622 C.ar    1  ZINC000482962466   -0.1000
     16 C16         0.0295    2.7901   53.7804 C.ar    1  ZINC000482962466   -0.0900
     17 C17         0.7527    3.0239   52.5966 C.ar    1  ZINC000482962466   -0.0500
     18 C18         0.0994    3.1594   51.3631 C.ar    1  ZINC000482962466   -0.0700
     19 C19        -1.0577    2.5536   47.0186 C.3     1  ZINC000482962466    0.0700
     20 C20        -0.4864    1.4884   46.0776 C.3     1  ZINC000482962466    0.0800
     21 C21        -1.3085    1.4537   44.7868 C.3     1  ZINC000482962466   -0.1100
     22 C22        -0.6808    0.4428   43.8219 C.3     1  ZINC000482962466   -0.1500
     23 C23         0.7803    0.8263   43.5732 C.3     1  ZINC000482962466    0.0600
     24 O24         1.4800    0.8685   44.8184 O.3     1  ZINC000482962466   -0.3700
     25 C25         0.9671    1.8299   45.7432 C.3     1  ZINC000482962466    0.0400
     26 O26        -0.5426    0.2110   46.7150 O.3     1  ZINC000482962466   -0.3500
     27 H27         0.5297   -2.0098   47.7303 H       1  ZINC000482962466    0.0700
     28 H28         0.7449   -1.3736   49.3787 H       1  ZINC000482962466    0.0800
     29 H29        -0.8901   -1.5392   48.6950 H       1  ZINC000482962466    0.0700
     30 H30        -1.2896    0.8014   49.2703 H       1  ZINC000482962466    0.0800
     31 H31         0.3765    1.1484   49.8005 H       1  ZINC000482962466    0.1000
     32 H32         2.8137    3.6648   49.3861 H       1  ZINC000482962466    0.1400
     33 H33         3.9718    3.4430   51.5113 H       1  ZINC000482962466    0.1400
     34 H34         3.8909    3.0747   53.9520 H       1  ZINC000482962466    0.1400
     35 H35         0.1350    2.4898   55.8696 H       1  ZINC000482962466    0.1400
     36 H36        -1.0469    2.7073   53.7513 H       1  ZINC000482962466    0.1400
     37 H37        -0.9766    3.0855   51.3059 H       1  ZINC000482962466    0.1400
     38 H38        -2.1274    2.3907   47.1514 H       1  ZINC000482962466    0.0900
     39 H39        -0.8862    3.5448   46.5985 H       1  ZINC000482962466    0.1000
     40 H40        -2.3316    1.1542   45.0141 H       1  ZINC000482962466    0.0800
     41 H41        -1.3098    2.4427   44.3287 H       1  ZINC000482962466    0.0800
     42 H42        -0.7262   -0.5547   44.2590 H       1  ZINC000482962466    0.0800
     43 H43        -1.2258    0.4532   42.8780 H       1  ZINC000482962466    0.0800
     44 H44         1.2441    0.0866   42.9206 H       1  ZINC000482962466    0.1000
     45 H45         0.8229    1.8068   43.0990 H       1  ZINC000482962466    0.0500
     46 H46         1.0138    2.8236   45.2979 H       1  ZINC000482962466    0.0600
     47 H47         1.5639    1.8114   46.6551 H       1  ZINC000482962466    0.1000
@<TRIPOS>BOND
     1     1     2    1
     2     1    27    1
     3     1    28    1
     4     1    29    1
     5     2     3    1
     6     2    26    1
     7     2     4    1
     8     4     5    1
     9     4    30    1
    10     4    31    1
    11     5     6   am
    12     5    19    1
    13     6     7    2
    14     6     8    1
    15     8    18   ar
    16     8     9   ar
    17     9    10   ar
    18     9    32    1
    19    10    11   ar
    20    10    33    1
    21    11    17   ar
    22    11    12   ar
    23    12    13   ar
    24    12    34    1
    25    13    14    1
    26    13    15   ar
    27    15    16   ar
    28    15    35    1
    29    16    17   ar
    30    16    36    1
    31    17    18   ar
    32    18    37    1
    33    19    20    1
    34    19    38    1
    35    19    39    1
    36    20    25    1
    37    20    21    1
    38    20    26    1
    39    21    22    1
    40    21    40    1
    41    21    41    1
    42    22    23    1
    43    22    42    1
    44    22    43    1
    45    23    24    1
    46    23    44    1
    47    23    45    1
    48    24    25    1
    49    25    46    1
    50    25    47    1
@<TRIPOS>SUBSTRUCTURE
     1 ZINC000482962466        1 TEMP              0 ****  ****    0 ROOT


##########                                Name:    ZINC000482139334
##########                DOCK_Rotatable_Bonds:                   4
##########                         Heavy_Atoms:                  26
##########                    Molecular_Weight:             348.376
##########                DOCK_Rotatable_Bonds:                   4
##########                       Formal_Charge:           0.0300002
##########                     HBond_Acceptors:                   5
##########                        HBond_Donors:                   1
##########                         Heavy_Atoms:                  26
##########                          Grid_Score:          -27.131657
##########                     Grid_vdw_energy:          -26.933779
##########                      Grid_es_energy:           -0.197878
##########           Internal_energy_repulsive:           22.902235

@<TRIPOS>MOLECULE
ZINC000482139334
 43 47 1 0 0
SMALL
USER_CHARGES


@<TRIPOS>ATOM
      1 O1         -0.6185    2.1230   49.6551 O.2     1  ZINC000482139334   -0.4800
      2 C2         -0.3128    2.6017   48.5837 C.2     1  ZINC000482139334    0.5500
      3 N3         -0.8168    3.7946   48.2101 N.am    1  ZINC000482139334   -0.6100
      4 C4         -1.6891    4.4715   49.0481 C.2     1  ZINC000482139334    0.4300
      5 N5         -2.0895    4.0580   50.2230 N.2     1  ZINC000482139334   -0.4800
      6 C6         -2.9356    4.9865   50.7411 C.2     1  ZINC000482139334    0.0400
      7 C7         -3.6193    4.9157   52.0559 C.ar    1  ZINC000482139334   -0.0500
      8 C8         -3.4148    3.8208   52.8924 C.ar    1  ZINC000482139334   -0.0800
      9 C9         -4.0530    3.7601   54.1150 C.ar    1  ZINC000482139334   -0.1300
     10 C10        -4.8951    4.7832   54.5111 C.ar    1  ZINC000482139334   -0.0800
     11 C11        -5.1037    5.8735   53.6859 C.ar    1  ZINC000482139334   -0.1600
     12 C12        -4.4655    5.9487   52.4622 C.ar    1  ZINC000482139334    0.1300
     13 F13        -4.6694    7.0138   51.6564 F       1  ZINC000482139334   -0.1200
     14 C14        -3.0393    5.9884   49.8362 C.2     1  ZINC000482139334   -0.0600
     15 O15        -2.2553    5.6600   48.7883 O.3     1  ZINC000482139334   -0.1800
     16 C16         0.6356    1.8658   47.6726 C.3     1  ZINC000482139334   -0.1800
     17 H17         1.5668    2.3846   47.4450 H       1  ZINC000482139334    0.1400
     18 C18         0.6859    0.3398   47.7875 C.3     1  ZINC000482139334   -0.1200
     19 C19         0.0284    0.9968   46.5780 C.3     1  ZINC000482139334   -0.0500
     20 C20        -1.4933    0.9298   46.3662 C.3     1  ZINC000482139334   -0.0700
     21 C21        -1.6037    0.1639   45.0291 C.3     1  ZINC000482139334   -0.0900
     22 C22        -0.3003    0.4341   44.3071 C.ar    1  ZINC000482139334   -0.0800
     23 C23         0.0362    0.2738   42.9740 C.ar    1  ZINC000482139334   -0.1100
     24 C24         1.3072    0.5887   42.5341 C.ar    1  ZINC000482139334   -0.1100
     25 C25         2.2475    1.0657   43.4278 C.ar    1  ZINC000482139334   -0.1200
     26 C26         1.9143    1.2269   44.7585 C.ar    1  ZINC000482139334   -0.1000
     27 C27         0.6409    0.9125   45.2024 C.ar    1  ZINC000482139334   -0.0700
     28 H28        -0.5692    4.1794   47.3549 H       1  ZINC000482139334    0.4400
     29 H29        -2.7581    3.0203   52.5847 H       1  ZINC000482139334    0.1300
     30 H30        -3.8946    2.9112   54.7637 H       1  ZINC000482139334    0.1400
     31 H31        -5.3922    4.7304   55.4685 H       1  ZINC000482139334    0.1400
     32 H32        -5.7629    6.6693   54.0001 H       1  ZINC000482139334    0.1400
     33 H33        -3.6348    6.8838   49.9359 H       1  ZINC000482139334    0.2200
     34 H34         1.6500   -0.1452   47.6348 H       1  ZINC000482139334    0.1200
     35 H35         0.0330   -0.1317   48.5221 H       1  ZINC000482139334    0.1100
     36 H36        -1.9732    0.3746   47.1721 H       1  ZINC000482139334    0.0800
     37 H37        -1.9170    1.9301   46.2765 H       1  ZINC000482139334    0.0900
     38 H38        -1.7191   -0.9041   45.2137 H       1  ZINC000482139334    0.0800
     39 H39        -2.4439    0.5407   44.4460 H       1  ZINC000482139334    0.0800
     40 H40        -0.6978   -0.0993   42.2752 H       1  ZINC000482139334    0.1200
     41 H41         1.5659    0.4620   41.4932 H       1  ZINC000482139334    0.1300
     42 H42         3.2419    1.3119   43.0859 H       1  ZINC000482139334    0.1300
     43 H43         2.6502    1.5992   45.4558 H       1  ZINC000482139334    0.1200
@<TRIPOS>BOND
     1     1     2    2
     2     2     3   am
     3     2    16    1
     4     3     4    1
     5     3    28    1
     6     4    15    1
     7     4     5    2
     8     5     6    1
     9     6     7    1
    10     6    14    2
    11     7    12   ar
    12     7     8   ar
    13     8     9   ar
    14     8    29    1
    15     9    10   ar
    16     9    30    1
    17    10    11   ar
    18    10    31    1
    19    11    12   ar
    20    11    32    1
    21    12    13    1
    22    14    15    1
    23    14    33    1
    24    16    17    1
    25    16    19    1
    26    16    18    1
    27    18    19    1
    28    18    34    1
    29    18    35    1
    30    19    27    1
    31    19    20    1
    32    20    21    1
    33    20    36    1
    34    20    37    1
    35    21    22    1
    36    21    38    1
    37    21    39    1
    38    22    27   ar
    39    22    23   ar
    40    23    24   ar
    41    23    40    1
    42    24    25   ar
    43    24    41    1
    44    25    26   ar
    45    25    42    1
    46    26    27   ar
    47    26    43    1
@<TRIPOS>SUBSTRUCTURE
     1 ZINC000482139334        1 TEMP              0 ****  ****    0 ROOT


##########                                Name:    ZINC000676564986
##########                DOCK_Rotatable_Bonds:                   5
##########                         Heavy_Atoms:                  25
##########                    Molecular_Weight:             347.444
##########                DOCK_Rotatable_Bonds:                   5
##########                       Formal_Charge:          -0.0100005
##########                     HBond_Acceptors:                   6
##########                        HBond_Donors:                   1
##########                         Heavy_Atoms:                  25
##########                          Grid_Score:          -27.128977
##########                     Grid_vdw_energy:          -26.388893
##########                      Grid_es_energy:           -0.740084
##########           Internal_energy_repulsive:            3.822645

@<TRIPOS>MOLECULE
ZINC000676564986
 42 45 1 0 0
SMALL
USER_CHARGES


@<TRIPOS>ATOM
      1 C1         -1.2166   -0.2242   44.7805 C.3     1  ZINC000676564986    0.0800
      2 N2         -1.2757    0.3532   46.1257 N.pl3   1  ZINC000676564986   -0.4800
      3 C3         -1.3160   -0.3389   47.2994 C.2     1  ZINC000676564986    0.2500
      4 N4         -1.3639    0.4891   48.3023 N.2     1  ZINC000676564986   -0.4600
      5 C5         -1.3575    1.7615   47.8373 C.ar    1  ZINC000676564986   -0.1100
      6 C6         -1.3940    3.0324   48.4354 C.ar    1  ZINC000676564986    0.5100
      7 N7         -1.4498    3.1658   49.8118 N.pl3   1  ZINC000676564986   -0.6900
      8 C8         -1.8539    4.4414   50.4082 C.3     1  ZINC000676564986    0.1700
      9 C9         -2.0115    4.2720   51.8974 C.ar    1  ZINC000676564986   -0.0800
     10 C10        -2.9829    4.9871   52.5741 C.ar    1  ZINC000676564986   -0.1100
     11 C11        -3.1302    4.8344   53.9385 C.ar    1  ZINC000676564986   -0.0700
     12 C12        -2.3009    3.9610   54.6318 C.ar    1  ZINC000676564986   -0.1300
     13 S13        -2.4855    3.7625   56.3728 S.3     1  ZINC000676564986   -0.0100
     14 C14        -4.2256    3.5644   56.5668 C.ar    1  ZINC000676564986   -0.1000
     15 C15        -4.9014    4.2726   57.5532 C.ar    1  ZINC000676564986   -0.1200
     16 C16        -6.2651    4.1153   57.7020 C.ar    1  ZINC000676564986   -0.1000
     17 C17        -6.9585    3.2542   56.8710 C.ar    1  ZINC000676564986   -0.1200
     18 C18        -6.2891    2.5477   55.8883 C.ar    1  ZINC000676564986   -0.1000
     19 C19        -4.9263    2.7041   55.7302 C.ar    1  ZINC000676564986   -0.1000
     20 C20        -1.3259    3.2441   53.9485 C.ar    1  ZINC000676564986   -0.0700
     21 C21        -1.1880    3.3976   52.5832 C.ar    1  ZINC000676564986   -0.1100
     22 N22        -1.3734    4.1034   47.6487 N.ar    1  ZINC000676564986   -0.5900
     23 C23        -1.3197    3.9857   46.3347 C.ar    1  ZINC000676564986    0.3600
     24 N24        -1.2845    2.8164   45.7308 N.ar    1  ZINC000676564986   -0.5600
     25 C25        -1.2950    1.6897   46.4353 C.ar    1  ZINC000676564986    0.3000
     26 H26        -0.1752   -0.3627   44.4901 H       1  ZINC000676564986    0.0800
     27 H27        -1.7262   -1.1878   44.7760 H       1  ZINC000676564986    0.0900
     28 H28        -1.7043    0.4482   44.0747 H       1  ZINC000676564986    0.0900
     29 H29        -1.3096   -1.4154   47.3846 H       1  ZINC000676564986    0.2200
     30 H30        -1.2213    2.4148   50.3816 H       1  ZINC000676564986    0.4200
     31 H31        -1.0918    5.1943   50.2068 H       1  ZINC000676564986    0.0800
     32 H32        -2.8026    4.7602   49.9765 H       1  ZINC000676564986    0.0800
     33 H33        -3.6269    5.6659   52.0347 H       1  ZINC000676564986    0.1300
     34 H34        -3.8887    5.3933   54.4663 H       1  ZINC000676564986    0.1400
     35 H35        -4.3607    4.9450   58.2028 H       1  ZINC000676564986    0.1200
     36 H36        -6.7910    4.6651   58.4686 H       1  ZINC000676564986    0.1300
     37 H37        -8.0250    3.1329   56.9899 H       1  ZINC000676564986    0.1300
     38 H38        -6.8336    1.8762   55.2411 H       1  ZINC000676564986    0.1300
     39 H39        -4.4043    2.1523   54.9624 H       1  ZINC000676564986    0.1300
     40 H40        -0.6796    2.5645   54.4841 H       1  ZINC000676564986    0.1300
     41 H41        -0.4306    2.8409   52.0516 H       1  ZINC000676564986    0.1300
     42 H42        -1.3047    4.8822   45.7326 H       1  ZINC000676564986    0.2000
@<TRIPOS>BOND
     1     1     2    1
     2     1    26    1
     3     1    27    1
     4     1    28    1
     5     2    25    1
     6     2     3    1
     7     3     4    2
     8     3    29    1
     9     4     5    1
    10     5    25   ar
    11     5     6   ar
    12     6     7    1
    13     6    22   ar
    14     7     8    1
    15     7    30    1
    16     8     9    1
    17     8    31    1
    18     8    32    1
    19     9    21   ar
    20     9    10   ar
    21    10    11   ar
    22    10    33    1
    23    11    12   ar
    24    11    34    1
    25    12    13    1
    26    12    20   ar
    27    13    14    1
    28    14    19   ar
    29    14    15   ar
    30    15    16   ar
    31    15    35    1
    32    16    17   ar
    33    16    36    1
    34    17    18   ar
    35    17    37    1
    36    18    19   ar
    37    18    38    1
    38    19    39    1
    39    20    21   ar
    40    20    40    1
    41    21    41    1
    42    22    23   ar
    43    23    24   ar
    44    23    42    1
    45    24    25   ar
@<TRIPOS>SUBSTRUCTURE
     1 ZINC000676564986        1 TEMP              0 ****  ****    0 ROOT


##########                                Name:    ZINC000506388363
##########                DOCK_Rotatable_Bonds:                   5
##########                         Heavy_Atoms:                  29
##########                    Molecular_Weight:             416.858
##########                DOCK_Rotatable_Bonds:                   5
##########                       Formal_Charge:         7.07805e-07
##########                     HBond_Acceptors:                   8
##########                        HBond_Donors:                   1
##########                         Heavy_Atoms:                  29
##########                          Grid_Score:          -27.120337
##########                     Grid_vdw_energy:          -26.578514
##########                      Grid_es_energy:           -0.541822
##########           Internal_energy_repulsive:           19.505283

@<TRIPOS>MOLECULE
ZINC000506388363
 48 51 1 0 0
SMALL
USER_CHARGES


@<TRIPOS>ATOM
      1 O1          0.1196    4.6858   52.0526 O.2     1  ZINC000506388363   -0.5300
      2 C2         -0.9876    4.3139   51.7160 C.2     1  ZINC000506388363    0.5600
      3 C3         -2.0390    4.1060   52.7345 C.ar    1  ZINC000506388363   -0.1200
      4 C4         -1.8817    3.1242   53.7137 C.ar    1  ZINC000506388363   -0.0900
      5 C5         -2.8661    2.9351   54.6620 C.ar    1  ZINC000506388363   -0.1100
      6 C6         -4.0078    3.7157   54.6435 C.ar    1  ZINC000506388363   -0.0900
      7 C7         -4.1708    4.6918   53.6747 C.ar    1  ZINC000506388363   -0.0400
      8 Cl8        -5.6071    5.6668   53.6602 Cl      1  ZINC000506388363   -0.0600
      9 C9         -3.1906    4.8947   52.7239 C.ar    1  ZINC000506388363   -0.0600
     10 N10        -1.2584    4.0962   50.4137 N.am    1  ZINC000506388363   -0.6100
     11 C11        -0.2252    4.2910   49.3851 C.3     1  ZINC000506388363    0.1000
     12 C12        -0.1613    3.0314   48.5147 C.3     1  ZINC000506388363    0.0400
     13 N13        -1.5028    2.7285   47.9983 N.3     1  ZINC000506388363   -0.5300
     14 C14        -1.4558    1.6311   47.0228 C.3     1  ZINC000506388363    0.1200
     15 C15        -0.6078    0.5107   47.5677 C.2     1  ZINC000506388363   -0.2100
     16 C16        -1.0097   -0.4395   48.4397 C.2     1  ZINC000506388363    0.0600
     17 N17         0.0389   -1.2558   48.6793 N.pl3   1  ZINC000506388363   -0.4700
     18 N18         1.1294   -0.7963   47.9300 N.2     1  ZINC000506388363   -0.2700
     19 C19         0.7431    0.2646   47.2535 C.2     1  ZINC000506388363    0.1300
     20 C20         1.5850    1.0663   46.3312 C.ar    1  ZINC000506388363   -0.0700
     21 C21         2.7683    1.6465   46.7885 C.ar    1  ZINC000506388363    0.1500
     22 F22         3.1518    1.4797   48.0732 F       1  ZINC000506388363   -0.1200
     23 C23         3.5481    2.3923   45.9239 C.ar    1  ZINC000506388363   -0.1600
     24 C24         3.1573    2.5636   44.6086 C.ar    1  ZINC000506388363   -0.0500
     25 C25         1.9853    1.9911   44.1489 C.ar    1  ZINC000506388363   -0.1600
     26 C26         1.1994    1.2382   45.0016 C.ar    1  ZINC000506388363    0.1600
     27 F27         0.0547    0.6796   44.5511 F       1  ZINC000506388363   -0.1200
     28 C28        -2.4376    2.4231   49.0896 C.3     1  ZINC000506388363    0.0400
     29 C29        -2.5929    3.6518   49.9842 C.3     1  ZINC000506388363    0.1200
     30 H30        -0.9911    2.5134   53.7291 H       1  ZINC000506388363    0.1400
     31 H31        -2.7449    2.1755   55.4201 H       1  ZINC000506388363    0.1400
     32 H32        -4.7756    3.5630   55.3876 H       1  ZINC000506388363    0.1400
     33 H33        -3.3181    5.6563   51.9689 H       1  ZINC000506388363    0.1400
     34 H34        -0.4821    5.1509   48.7665 H       1  ZINC000506388363    0.0800
     35 H35         0.7406    4.4554   49.8628 H       1  ZINC000506388363    0.1000
     36 H36         0.5200    3.1998   47.6808 H       1  ZINC000506388363    0.0900
     37 H37         0.1957    2.1935   49.1133 H       1  ZINC000506388363    0.0400
     38 H38        -2.4658    1.2656   46.8382 H       1  ZINC000506388363    0.1000
     39 H39        -1.0240    1.9928   46.0896 H       1  ZINC000506388363    0.0400
     40 H40        -1.9962   -0.5301   48.8699 H       1  ZINC000506388363    0.1800
     41 H41         0.0373   -2.0264   49.2685 H       1  ZINC000506388363    0.4400
     42 H42         4.4643    2.8423   46.2768 H       1  ZINC000506388363    0.1500
     43 H43         3.7697    3.1473   43.9374 H       1  ZINC000506388363    0.1500
     44 H44         1.6855    2.1290   43.1206 H       1  ZINC000506388363    0.1500
     45 H45        -3.4069    2.1502   48.6725 H       1  ZINC000506388363    0.0900
     46 H46        -2.0487    1.5936   49.6801 H       1  ZINC000506388363    0.0400
     47 H47        -3.1938    3.3958   50.8568 H       1  ZINC000506388363    0.1000
     48 H48        -3.0768    4.4529   49.4252 H       1  ZINC000506388363    0.0800
@<TRIPOS>BOND
     1     1     2    2
     2     2     3    1
     3     2    10   am
     4     3     9   ar
     5     3     4   ar
     6     4     5   ar
     7     4    30    1
     8     5     6   ar
     9     5    31    1
    10     6     7   ar
    11     6    32    1
    12     7     8    1
    13     7     9   ar
    14     9    33    1
    15    10    29    1
    16    10    11    1
    17    11    12    1
    18    11    34    1
    19    11    35    1
    20    12    13    1
    21    12    36    1
    22    12    37    1
    23    13    14    1
    24    13    28    1
    25    14    15    1
    26    14    38    1
    27    14    39    1
    28    15    19    1
    29    15    16    2
    30    16    17    1
    31    16    40    1
    32    17    18    1
    33    17    41    1
    34    18    19    2
    35    19    20    1
    36    20    26   ar
    37    20    21   ar
    38    21    22    1
    39    21    23   ar
    40    23    24   ar
    41    23    42    1
    42    24    25   ar
    43    24    43    1
    44    25    26   ar
    45    25    44    1
    46    26    27    1
    47    28    29    1
    48    28    45    1
    49    28    46    1
    50    29    47    1
    51    29    48    1
@<TRIPOS>SUBSTRUCTURE
     1 ZINC000506388363        1 TEMP              0 ****  ****    0 ROOT


##########                                Name:    ZINC000915315870
##########                DOCK_Rotatable_Bonds:                   4
##########                         Heavy_Atoms:                  24
##########                    Molecular_Weight:             357.381
##########                DOCK_Rotatable_Bonds:                   4
##########                       Formal_Charge:           0.0300002
##########                     HBond_Acceptors:                   9
##########                        HBond_Donors:                   1
##########                         Heavy_Atoms:                  24
##########                          Grid_Score:          -27.117170
##########                     Grid_vdw_energy:          -26.492052
##########                      Grid_es_energy:           -0.625118
##########           Internal_energy_repulsive:           36.797043

@<TRIPOS>MOLECULE
ZINC000915315870
 41 43 1 0 0
SMALL
USER_CHARGES


@<TRIPOS>ATOM
      1 C1         -2.2541    2.4924   55.3780 C.3     1  ZINC000915315870    0.0300
      2 O2         -2.9693    2.8845   54.2046 O.3     1  ZINC000915315870   -0.3200
      3 C3         -2.2327    3.3421   53.1568 C.ar    1  ZINC000915315870    0.0800
      4 C4         -2.8659    3.8268   52.0203 C.ar    1  ZINC000915315870    0.0900
      5 F5         -4.2152    3.8452   51.9539 F       1  ZINC000915315870   -0.1100
      6 C6         -2.1137    4.2916   50.9559 C.ar    1  ZINC000915315870   -0.0500
      7 C7         -0.7330    4.2731   51.0231 C.ar    1  ZINC000915315870   -0.6300
      8 S8          0.2213    4.8652   49.6654 S.o2    1  ZINC000915315870    2.7000
      9 O9         -0.6094    5.7753   48.9576 O.2     1  ZINC000915315870   -0.9400
     10 O10         1.4917    5.2216   50.1931 O.2     1  ZINC000915315870   -0.9400
     11 N11         0.4795    3.5819   48.6511 N.am    1  ZINC000915315870   -1.1100
     12 C12        -0.6589    2.8821   48.0507 C.3     1  ZINC000915315870    0.2400
     13 H13        -1.5220    2.9482   48.7130 H       1  ZINC000915315870    0.0900
     14 C14        -0.9978    3.5136   46.6945 C.3     1  ZINC000915315870   -0.1400
     15 C15        -2.0177    2.6413   45.9593 C.3     1  ZINC000915315870   -0.1100
     16 C16        -1.3431    1.3519   45.4745 C.3     1  ZINC000915315870   -0.0400
     17 C17        -0.6117    0.7347   46.6418 C.2     1  ZINC000915315870    0.0900
     18 N18        -0.1637   -0.4812   46.7608 N.2     1  ZINC000915315870   -0.2900
     19 N19         0.4449   -0.6010   48.0194 N.pl3   1  ZINC000915315870   -0.3800
     20 C20         1.0794   -1.8066   48.5580 C.3     1  ZINC000915315870    0.1000
     21 C21         0.3433    0.5920   48.6476 C.2     1  ZINC000915315870    0.0800
     22 C22        -0.3028    1.4340   47.8213 C.2     1  ZINC000915315870   -0.2500
     23 C23        -0.0993    3.7915   52.1535 C.ar    1  ZINC000915315870   -0.0500
     24 C24        -0.8459    3.3306   53.2236 C.ar    1  ZINC000915315870    0.1000
     25 F25        -0.2261    2.8601   54.3280 F       1  ZINC000915315870   -0.1100
     26 H26        -2.9590    2.1483   56.1350 H       1  ZINC000915315870    0.1100
     27 H27        -1.5644    1.6855   55.1304 H       1  ZINC000915315870    0.0600
     28 H28        -1.6937    3.3439   55.7637 H       1  ZINC000915315870    0.0500
     29 H29        -2.6057    4.6688   50.0716 H       1  ZINC000915315870    0.1700
     30 H30         1.3846    3.2936   48.4544 H       1  ZINC000915315870    0.4200
     31 H31        -1.4171    4.5073   46.8518 H       1  ZINC000915315870    0.0900
     32 H32        -0.0908    3.5943   46.0953 H       1  ZINC000915315870    0.0800
     33 H33        -2.8348    2.3906   46.6357 H       1  ZINC000915315870    0.0700
     34 H34        -2.4120    3.1881   45.1028 H       1  ZINC000915315870    0.0800
     35 H35        -2.0984    0.6582   45.1053 H       1  ZINC000915315870    0.0800
     36 H36        -0.6356    1.5841   44.6784 H       1  ZINC000915315870    0.0900
     37 H37         2.1345   -1.8148   48.2848 H       1  ZINC000915315870    0.0800
     38 H38         0.9851   -1.8126   49.6439 H       1  ZINC000915315870    0.0900
     39 H39         0.5905   -2.6894   48.1459 H       1  ZINC000915315870    0.0900
     40 H40         0.7138    0.8265   49.6346 H       1  ZINC000915315870    0.1700
     41 H41         0.9794    3.7786   52.2032 H       1  ZINC000915315870    0.1700
@<TRIPOS>BOND
     1     1     2    1
     2     1    26    1
     3     1    27    1
     4     1    28    1
     5     2     3    1
     6     3    24   ar
     7     3     4   ar
     8     4     5    1
     9     4     6   ar
    10     6     7   ar
    11     6    29    1
    12     7     8    1
    13     7    23   ar
    14     8     9    2
    15     8    10    2
    16     8    11   am
    17    11    12    1
    18    11    30    1
    19    12    13    1
    20    12    22    1
    21    12    14    1
    22    14    15    1
    23    14    31    1
    24    14    32    1
    25    15    16    1
    26    15    33    1
    27    15    34    1
    28    16    17    1
    29    16    35    1
    30    16    36    1
    31    17    22    1
    32    17    18    2
    33    18    19    1
    34    19    20    1
    35    19    21    1
    36    20    37    1
    37    20    38    1
    38    20    39    1
    39    21    22    2
    40    21    40    1
    41    23    24   ar
    42    23    41    1
    43    24    25    1
@<TRIPOS>SUBSTRUCTURE
     1 ZINC000915315870        1 TEMP              0 ****  ****    0 ROOT


##########                                Name:    ZINC000794876634
##########                DOCK_Rotatable_Bonds:                   4
##########                         Heavy_Atoms:                  24
##########                    Molecular_Weight:             389.249
##########                DOCK_Rotatable_Bonds:                   4
##########                       Formal_Charge:        -4.47035e-08
##########                     HBond_Acceptors:                   5
##########                        HBond_Donors:                   0
##########                         Heavy_Atoms:                  24
##########                          Grid_Score:          -27.107449
##########                     Grid_vdw_energy:          -26.560949
##########                      Grid_es_energy:           -0.546500
##########           Internal_energy_repulsive:           16.514025

@<TRIPOS>MOLECULE
ZINC000794876634
 41 43 1 0 0
SMALL
USER_CHARGES


@<TRIPOS>ATOM
      1 C1        -13.5967    0.4240   51.0183 C.3     1  ZINC000794876634    0.0200
      2 O2        -12.2049    0.5967   51.2923 O.3     1  ZINC000794876634   -0.3000
      3 C3        -11.8060    0.4390   52.5807 C.ar    1  ZINC000794876634    0.1300
      4 C4        -12.6657    0.7771   53.6176 C.ar    1  ZINC000794876634   -0.1800
      5 C5        -12.2674    0.6200   54.9266 C.ar    1  ZINC000794876634   -0.0400
      6 C6        -13.2034    0.9881   56.0488 C.3     1  ZINC000794876634   -0.1200
      7 C7        -10.9914    0.1175   55.2143 C.ar    1  ZINC000794876634   -0.1000
      8 C8        -10.5643   -0.0513   56.6061 C.2     1  ZINC000794876634    0.0600
      9 C9        -10.8750   -1.1962   57.2812 C.2     1  ZINC000794876634   -0.1700
     10 C10       -11.6258   -2.3594   56.7783 C.2     1  ZINC000794876634    0.5700
     11 O11       -12.0935   -2.4811   55.6609 O.2     1  ZINC000794876634   -0.4900
     12 N12       -11.7031   -3.2626   57.7700 N.am    1  ZINC000794876634   -0.5300
     13 C13       -12.3763   -4.5586   57.6533 C.3     1  ZINC000794876634    0.0800
     14 C14       -11.0657   -2.8160   58.9172 C.ar    1  ZINC000794876634    0.3700
     15 N15       -10.9042   -3.3788   60.1083 N.ar    1  ZINC000794876634   -0.4900
     16 C16       -10.2536   -2.7744   61.0818 C.ar    1  ZINC000794876634    0.1800
     17 C17        -9.7028   -1.5166   60.9121 C.ar    1  ZINC000794876634   -0.1800
     18 Br18       -8.7746   -0.6779   62.3302 Br      1  ZINC000794876634   -0.0200
     19 C19        -9.8401   -0.8791   59.6876 C.ar    1  ZINC000794876634    0.0000
     20 C20       -10.5262   -1.5435   58.6764 C.ar    1  ZINC000794876634   -0.1400
     21 C21       -10.1249   -0.2237   54.1662 C.ar    1  ZINC000794876634   -0.1400
     22 C22       -10.5357   -0.0675   52.8582 C.ar    1  ZINC000794876634    0.0900
     23 O23        -9.6981   -0.3977   51.8390 O.3     1  ZINC000794876634   -0.3000
     24 C24        -8.3677   -0.7825   52.1912 C.3     1  ZINC000794876634    0.0200
     25 H25       -13.7794    0.5772   49.9547 H       1  ZINC000794876634    0.1000
     26 H26       -13.8993   -0.5854   51.2972 H       1  ZINC000794876634    0.0600
     27 H27       -14.1729    1.1482   51.5941 H       1  ZINC000794876634    0.0600
     28 H28       -13.6494    1.1645   53.3969 H       1  ZINC000794876634    0.1400
     29 H29       -13.8053    0.1205   56.3192 H       1  ZINC000794876634    0.0800
     30 H30       -12.6243    1.3123   56.9134 H       1  ZINC000794876634    0.0700
     31 H31       -13.8577    1.7977   55.7254 H       1  ZINC000794876634    0.0700
     32 H32       -10.0038    0.7302   57.0975 H       1  ZINC000794876634    0.1500
     33 H33       -12.7933   -4.6624   56.6516 H       1  ZINC000794876634    0.0900
     34 H34       -11.6580   -5.3586   57.8326 H       1  ZINC000794876634    0.0800
     35 H35       -13.1784   -4.6188   58.3889 H       1  ZINC000794876634    0.0800
     36 H36       -10.1481   -3.2723   62.0344 H       1  ZINC000794876634    0.1800
     37 H37        -9.4223    0.1031   59.5228 H       1  ZINC000794876634    0.1600
     38 H38        -9.1403   -0.6114   54.3820 H       1  ZINC000794876634    0.1400
     39 H39        -7.8518    0.0652   52.6421 H       1  ZINC000794876634    0.0500
     40 H40        -8.4044   -1.6065   52.9036 H       1  ZINC000794876634    0.0600
     41 H41        -7.8322   -1.0995   51.2963 H       1  ZINC000794876634    0.1100
@<TRIPOS>BOND
     1     1     2    1
     2     1    25    1
     3     1    26    1
     4     1    27    1
     5     2     3    1
     6     3    22   ar
     7     3     4   ar
     8     4     5   ar
     9     4    28    1
    10     5     6    1
    11     5     7   ar
    12     6    29    1
    13     6    30    1
    14     6    31    1
    15     7     8    1
    16     7    21   ar
    17     8     9    2
    18     8    32    1
    19     9    20    1
    20     9    10    1
    21    10    11    2
    22    10    12   am
    23    12    13    1
    24    12    14    1
    25    13    33    1
    26    13    34    1
    27    13    35    1
    28    14    20   ar
    29    14    15   ar
    30    15    16   ar
    31    16    17   ar
    32    16    36    1
    33    17    18    1
    34    17    19   ar
    35    19    20   ar
    36    19    37    1
    37    21    22   ar
    38    21    38    1
    39    22    23    1
    40    23    24    1
    41    24    39    1
    42    24    40    1
    43    24    41    1
@<TRIPOS>SUBSTRUCTURE
     1 ZINC000794876634        1 TEMP              0 ****  ****    0 ROOT


##########                                Name:    ZINC000477669194
##########                DOCK_Rotatable_Bonds:                   6
##########                         Heavy_Atoms:                  26
##########                    Molecular_Weight:             387.483
##########                DOCK_Rotatable_Bonds:                   6
##########                       Formal_Charge:         4.47035e-07
##########                     HBond_Acceptors:                   8
##########                        HBond_Donors:                   2
##########                         Heavy_Atoms:                  26
##########                          Grid_Score:          -27.091919
##########                     Grid_vdw_energy:          -26.084562
##########                      Grid_es_energy:           -1.007356
##########           Internal_energy_repulsive:           28.884243

@<TRIPOS>MOLECULE
ZINC000477669194
 43 45 1 0 0
SMALL
USER_CHARGES


@<TRIPOS>ATOM
      1 C1         -7.7965    1.4005   57.0953 C.3     1  ZINC000477669194   -0.0800
      2 C2         -8.8453    0.6098   56.3563 C.2     1  ZINC000477669194    0.0500
      3 N3         -9.6307   -0.2550   56.8988 N.2     1  ZINC000477669194   -0.4900
      4 C4        -10.4996   -0.8638   56.1048 C.2     1  ZINC000477669194    0.1200
      5 C5        -11.4636   -1.8801   56.5921 C.ar    1  ZINC000477669194   -0.0600
      6 C6        -12.2173   -2.6207   55.6853 C.ar    1  ZINC000477669194   -0.0800
      7 C7        -13.1137   -3.5657   56.1439 C.ar    1  ZINC000477669194   -0.1400
      8 C8        -13.2666   -3.7807   57.5019 C.ar    1  ZINC000477669194   -0.0900
      9 C9        -12.5242   -3.0515   58.4117 C.ar    1  ZINC000477669194   -0.1300
     10 C10       -11.6158   -2.1034   57.9656 C.ar    1  ZINC000477669194    0.1800
     11 N11       -10.8640   -1.3655   58.8840 N.am    1  ZINC000477669194   -0.6500
     12 C12       -10.1287   -2.0006   59.8180 C.2     1  ZINC000477669194    0.5600
     13 O13       -10.1194   -3.2160   59.8615 O.2     1  ZINC000477669194   -0.5200
     14 C14        -9.3353   -1.2219   60.7872 C.ar    1  ZINC000477669194   -0.1500
     15 C15        -9.5289   -1.4061   62.1595 C.ar    1  ZINC000477669194   -0.0600
     16 C16        -8.7867   -0.6785   63.0613 C.ar    1  ZINC000477669194   -0.1400
     17 C17        -7.8438    0.2403   62.6085 C.ar    1  ZINC000477669194    0.1700
     18 N18        -7.0955    0.9741   63.5224 N.am    1  ZINC000477669194   -1.0600
     19 S19        -7.4878    0.9397   65.1309 S.o2    1  ZINC000477669194    2.6100
     20 C20        -6.2633    2.0217   65.9187 C.3     1  ZINC000477669194   -0.6700
     21 O21        -8.7812    1.5252   65.1888 O.2     1  ZINC000477669194   -0.9400
     22 O22        -7.2780   -0.4126   65.5138 O.2     1  ZINC000477669194   -0.9500
     23 C23        -7.6484    0.4257   61.2426 C.ar    1  ZINC000477669194   -0.1600
     24 C24        -8.3839   -0.3024   60.3357 C.ar    1  ZINC000477669194   -0.0300
     25 C25       -10.4303   -0.4775   54.8147 C.2     1  ZINC000477669194   -0.2600
     26 S26        -9.1641    0.7404   54.6823 S.3     1  ZINC000477669194    0.1500
     27 H27        -7.2805    2.0604   56.3978 H       1  ZINC000477669194    0.0800
     28 H28        -8.2723    1.9958   57.8745 H       1  ZINC000477669194    0.0900
     29 H29        -7.0781    0.7170   57.5479 H       1  ZINC000477669194    0.0900
     30 H30       -12.1014   -2.4557   54.6243 H       1  ZINC000477669194    0.1300
     31 H31       -13.6979   -4.1391   55.4395 H       1  ZINC000477669194    0.1300
     32 H32       -13.9696   -4.5216   57.8530 H       1  ZINC000477669194    0.1300
     33 H33       -12.6485   -3.2233   59.4707 H       1  ZINC000477669194    0.1500
     34 H34       -10.8715   -0.3961   58.8493 H       1  ZINC000477669194    0.4200
     35 H35       -10.2603   -2.1184   62.5115 H       1  ZINC000477669194    0.1300
     36 H36        -8.9360   -0.8199   64.1215 H       1  ZINC000477669194    0.1400
     37 H37        -6.3439    1.5061   63.2177 H       1  ZINC000477669194    0.4300
     38 H38        -6.4025    3.0441   65.5674 H       1  ZINC000477669194    0.1300
     39 H39        -6.3918    1.9886   67.0006 H       1  ZINC000477669194    0.1400
     40 H40        -5.2599    1.6825   65.6614 H       1  ZINC000477669194    0.1300
     41 H41        -6.9159    1.1389   60.8944 H       1  ZINC000477669194    0.1700
     42 H42        -8.2315   -0.1583   59.2763 H       1  ZINC000477669194    0.1500
     43 H43       -11.0446   -0.8463   54.0067 H       1  ZINC000477669194    0.1800
@<TRIPOS>BOND
     1     1     2    1
     2     1    27    1
     3     1    28    1
     4     1    29    1
     5     2    26    1
     6     2     3    2
     7     3     4    1
     8     4     5    1
     9     4    25    2
    10     5    10   ar
    11     5     6   ar
    12     6     7   ar
    13     6    30    1
    14     7     8   ar
    15     7    31    1
    16     8     9   ar
    17     8    32    1
    18     9    10   ar
    19     9    33    1
    20    10    11    1
    21    11    12   am
    22    11    34    1
    23    12    13    2
    24    12    14    1
    25    14    24   ar
    26    14    15   ar
    27    15    16   ar
    28    15    35    1
    29    16    17   ar
    30    16    36    1
    31    17    18    1
    32    17    23   ar
    33    18    19   am
    34    18    37    1
    35    19    20    1
    36    19    21    2
    37    19    22    2
    38    20    38    1
    39    20    39    1
    40    20    40    1
    41    23    24   ar
    42    23    41    1
    43    24    42    1
    44    25    26    1
    45    25    43    1
@<TRIPOS>SUBSTRUCTURE
     1 ZINC000477669194        1 TEMP              0 ****  ****    0 ROOT


##########                                Name:    ZINC001318556452
##########                DOCK_Rotatable_Bonds:                   4
##########                         Heavy_Atoms:                  26
##########                    Molecular_Weight:             368.456
##########                DOCK_Rotatable_Bonds:                   4
##########                       Formal_Charge:          -0.0200005
##########                     HBond_Acceptors:                   6
##########                        HBond_Donors:                   1
##########                         Heavy_Atoms:                  26
##########                          Grid_Score:          -27.091553
##########                     Grid_vdw_energy:          -25.007044
##########                      Grid_es_energy:           -2.084509
##########           Internal_energy_repulsive:           17.963829

@<TRIPOS>MOLECULE
ZINC001318556452
 46 48 1 0 0
SMALL
USER_CHARGES


@<TRIPOS>ATOM
      1 C1         -8.4747   -1.1259   62.3254 C.3     1  ZINC001318556452   -0.1300
      2 C2         -9.4482   -0.4557   63.2604 C.ar    1  ZINC001318556452   -0.1000
      3 C3         -8.9824    0.3120   64.3092 C.ar    1  ZINC001318556452   -0.0500
      4 C4         -7.4994    0.4793   64.5189 C.3     1  ZINC001318556452   -0.4100
      5 S5         -7.1831    0.9699   66.2364 S.o     1  ZINC001318556452    1.2500
      6 C6         -5.3761    1.1192   66.2920 C.3     1  ZINC001318556452   -0.4900
      7 O7         -7.5996   -0.0703   67.1105 O.2     1  ZINC001318556452   -0.8400
      8 C8         -9.8752    0.9281   65.1672 C.ar    1  ZINC001318556452   -0.1200
      9 C9        -11.2366    0.7769   64.9786 C.ar    1  ZINC001318556452   -0.1000
     10 C10       -11.7093    0.0095   63.9320 C.ar    1  ZINC001318556452   -0.1200
     11 C11       -10.8155   -0.6052   63.0646 C.ar    1  ZINC001318556452    0.1400
     12 N12       -11.2906   -1.3822   62.0041 N.am    1  ZINC001318556452   -0.6600
     13 C13       -12.0106   -0.8098   61.0190 C.2     1  ZINC001318556452    0.5600
     14 O14       -12.2468    0.3816   61.0527 O.2     1  ZINC001318556452   -0.5000
     15 C15       -12.5144   -1.6339   59.8942 C.2     1  ZINC001318556452   -0.0300
     16 C16       -13.5569   -2.4978   60.0739 C.2     1  ZINC001318556452   -0.1600
     17 C17       -14.0312   -3.2960   58.9460 C.2     1  ZINC001318556452    0.5300
     18 O18       -14.9609   -4.0668   59.1055 O.2     1  ZINC001318556452   -0.5200
     19 N19       -13.4574   -3.1924   57.7346 N.am    1  ZINC001318556452   -0.5200
     20 C20       -13.9630   -4.0095   56.6288 C.3     1  ZINC001318556452    0.0600
     21 C21       -12.4033   -2.3325   57.5119 C.ar    1  ZINC001318556452    0.1800
     22 C22       -11.8230   -2.2401   56.2496 C.ar    1  ZINC001318556452   -0.1700
     23 C23       -10.7699   -1.3764   56.0409 C.ar    1  ZINC001318556452   -0.0600
     24 C24       -10.2798   -0.5952   57.0783 C.ar    1  ZINC001318556452   -0.1500
     25 C25       -10.8339   -0.6697   58.3248 C.ar    1  ZINC001318556452   -0.0600
     26 C26       -11.9067   -1.5347   58.5583 C.ar    1  ZINC001318556452   -0.1100
     27 H27        -8.2448   -0.4546   61.4981 H       1  ZINC001318556452    0.0800
     28 H28        -7.5582   -1.3645   62.8651 H       1  ZINC001318556452    0.0800
     29 H29        -8.9168   -2.0433   61.9368 H       1  ZINC001318556452    0.0700
     30 H30        -6.9945   -0.4643   64.3118 H       1  ZINC001318556452    0.1000
     31 H31        -7.1218    1.2489   63.8458 H       1  ZINC001318556452    0.1300
     32 H32        -5.0515    1.8728   65.5745 H       1  ZINC001318556452    0.1100
     33 H33        -5.0666    1.4148   67.2945 H       1  ZINC001318556452    0.1100
     34 H34        -4.9244    0.1596   66.0404 H       1  ZINC001318556452    0.0800
     35 H35        -9.5082    1.5285   65.9866 H       1  ZINC001318556452    0.1200
     36 H36       -11.9311    1.2591   65.6507 H       1  ZINC001318556452    0.1300
     37 H37       -12.7728   -0.1085   63.7855 H       1  ZINC001318556452    0.1500
     38 H38       -11.1020   -2.3333   61.9772 H       1  ZINC001318556452    0.4100
     39 H39       -14.0265   -2.5904   61.0420 H       1  ZINC001318556452    0.1600
     40 H40       -14.7907   -4.6252   56.9807 H       1  ZINC001318556452    0.1000
     41 H41       -14.3096   -3.3594   55.8255 H       1  ZINC001318556452    0.0800
     42 H42       -13.1646   -4.6520   56.2573 H       1  ZINC001318556452    0.0800
     43 H43       -12.1972   -2.8441   55.4362 H       1  ZINC001318556452    0.1400
     44 H44       -10.3213   -1.3069   55.0609 H       1  ZINC001318556452    0.1300
     45 H45        -9.4534    0.0766   56.8987 H       1  ZINC001318556452    0.1300
     46 H46       -10.4469   -0.0586   59.1268 H       1  ZINC001318556452    0.1700
@<TRIPOS>BOND
     1     1     2    1
     2     1    27    1
     3     1    28    1
     4     1    29    1
     5     2    11   ar
     6     2     3   ar
     7     3     4    1
     8     3     8   ar
     9     4     5    1
    10     4    30    1
    11     4    31    1
    12     5     6    1
    13     5     7    2
    14     6    32    1
    15     6    33    1
    16     6    34    1
    17     8     9   ar
    18     8    35    1
    19     9    10   ar
    20     9    36    1
    21    10    11   ar
    22    10    37    1
    23    11    12    1
    24    12    13   am
    25    12    38    1
    26    13    14    2
    27    13    15    1
    28    15    26    1
    29    15    16    2
    30    16    17    1
    31    16    39    1
    32    17    18    2
    33    17    19   am
    34    19    20    1
    35    19    21    1
    36    20    40    1
    37    20    41    1
    38    20    42    1
    39    21    26   ar
    40    21    22   ar
    41    22    23   ar
    42    22    43    1
    43    23    24   ar
    44    23    44    1
    45    24    25   ar
    46    24    45    1
    47    25    26   ar
    48    25    46    1
@<TRIPOS>SUBSTRUCTURE
     1 ZINC001318556452        1 TEMP              0 ****  ****    0 ROOT


##########                                Name:    ZINC001060620810
##########                DOCK_Rotatable_Bonds:                   5
##########                         Heavy_Atoms:                  24
##########                    Molecular_Weight:             332.421
##########                DOCK_Rotatable_Bonds:                   5
##########                       Formal_Charge:           0.0299998
##########                     HBond_Acceptors:                   6
##########                        HBond_Donors:                   2
##########                         Heavy_Atoms:                  24
##########                          Grid_Score:          -27.034086
##########                     Grid_vdw_energy:          -26.928762
##########                      Grid_es_energy:           -0.105324
##########           Internal_energy_repulsive:            9.168970

@<TRIPOS>MOLECULE
ZINC001060620810
 49 52 1 0 0
SMALL
USER_CHARGES


@<TRIPOS>ATOM
      1 O1        -12.1288    0.0100   58.4906 O.2     1  ZINC001060620810   -0.5400
      2 C2        -12.4229   -1.0422   59.0173 C.2     1  ZINC001060620810    0.5500
      3 N3        -11.6368   -1.5543   59.9850 N.am    1  ZINC001060620810   -0.7200
      4 C4        -10.4281   -0.8390   60.4019 C.3     1  ZINC001060620810    0.1400
      5 C5        -10.7941    0.2118   61.4519 C.3     1  ZINC001060620810   -0.1300
      6 C6         -9.5319    0.9588   61.8874 C.3     1  ZINC001060620810   -0.1300
      7 C7         -8.5327   -0.0336   62.4856 C.3     1  ZINC001060620810    0.1600
      8 N8         -9.1351   -0.6928   63.6470 N.pl3   1  ZINC001060620810   -0.6900
      9 C9         -8.6681   -0.4143   64.9212 C.ar    1  ZINC001060620810    0.5600
     10 N10        -7.7223    0.4999   65.0770 N.ar    1  ZINC001060620810   -0.5400
     11 C11        -7.2570    0.7939   66.2801 C.ar    1  ZINC001060620810    0.1700
     12 C12        -7.7647    0.1236   67.3841 C.ar    1  ZINC001060620810   -0.0700
     13 F13        -7.3092    0.3952   68.6266 F       1  ZINC001060620810   -0.1300
     14 C14        -8.7511   -0.8317   67.1831 C.ar    1  ZINC001060620810    0.1800
     15 N15        -9.1744   -1.0726   65.9530 N.ar    1  ZINC001060620810   -0.5500
     16 C16        -8.1668   -1.0844   61.4356 C.3     1  ZINC001060620810   -0.1200
     17 C17        -9.4291   -1.8314   61.0002 C.3     1  ZINC001060620810   -0.1300
     18 C18       -13.6671   -1.7771   58.5897 C.3     1  ZINC001060620810   -0.1500
     19 C19       -14.9895   -1.1307   58.9812 C.3     1  ZINC001060620810   -0.1500
     20 C20       -14.5090   -2.3671   59.7102 C.3     1  ZINC001060620810   -0.1100
     21 H21       -14.1608   -2.2117   60.7312 H       1  ZINC001060620810    0.1100
     22 C22       -15.2906   -3.6597   59.4971 C.3     1  ZINC001060620810   -0.0900
     23 C23       -14.7326   -4.4313   58.3011 C.3     1  ZINC001060620810   -0.1200
     24 C24       -14.7011   -3.4954   57.0874 C.3     1  ZINC001060620810   -0.1200
     25 C25       -13.5464   -2.5091   57.2623 C.3     1  ZINC001060620810   -0.0800
     26 H26       -11.8713   -2.3964   60.4053 H       1  ZINC001060620810    0.4000
     27 H27        -9.9800   -0.3485   59.5378 H       1  ZINC001060620810    0.0900
     28 H28       -11.5059    0.9189   61.0259 H       1  ZINC001060620810    0.0700
     29 H29       -11.2423   -0.2787   62.3160 H       1  ZINC001060620810    0.0600
     30 H30        -9.7926    1.7075   62.6355 H       1  ZINC001060620810    0.0700
     31 H31        -9.0837    1.4493   61.0233 H       1  ZINC001060620810    0.0800
     32 H32        -7.6335    0.4986   62.7958 H       1  ZINC001060620810    0.1000
     33 H33        -9.8610   -1.3243   63.5238 H       1  ZINC001060620810    0.4100
     34 H34        -6.4885    1.5429   66.4010 H       1  ZINC001060620810    0.1800
     35 H35        -9.1677   -1.3721   68.0202 H       1  ZINC001060620810    0.1800
     36 H36        -7.4550   -1.7914   61.8617 H       1  ZINC001060620810    0.0800
     37 H37        -7.7186   -0.5939   60.5715 H       1  ZINC001060620810    0.0900
     38 H38        -9.8772   -2.3219   61.8642 H       1  ZINC001060620810    0.0700
     39 H39        -9.1683   -2.5800   60.2520 H       1  ZINC001060620810    0.0800
     40 H40       -14.9477   -0.1864   59.5239 H       1  ZINC001060620810    0.1000
     41 H41       -15.8280   -1.2424   58.2937 H       1  ZINC001060620810    0.1100
     42 H42       -16.3327   -3.4028   59.3068 H       1  ZINC001060620810    0.0700
     43 H43       -15.2293   -4.2826   60.3895 H       1  ZINC001060620810    0.0700
     44 H44       -15.3726   -5.2872   58.0869 H       1  ZINC001060620810    0.0700
     45 H45       -13.7223   -4.7736   58.5256 H       1  ZINC001060620810    0.0700
     46 H46       -15.6422   -2.9492   57.0221 H       1  ZINC001060620810    0.0700
     47 H47       -14.5498   -4.0789   56.1792 H       1  ZINC001060620810    0.0700
     48 H48       -13.5663   -1.7841   56.4486 H       1  ZINC001060620810    0.0700
     49 H49       -12.6022   -3.0532   57.2361 H       1  ZINC001060620810    0.0700
@<TRIPOS>BOND
     1     1     2    2
     2     2     3   am
     3     2    18    1
     4     3     4    1
     5     3    26    1
     6     4    17    1
     7     4     5    1
     8     4    27    1
     9     5     6    1
    10     5    28    1
    11     5    29    1
    12     6     7    1
    13     6    30    1
    14     6    31    1
    15     7     8    1
    16     7    16    1
    17     7    32    1
    18     8     9    1
    19     8    33    1
    20     9    15   ar
    21     9    10   ar
    22    10    11   ar
    23    11    12   ar
    24    11    34    1
    25    12    13    1
    26    12    14   ar
    27    14    15   ar
    28    14    35    1
    29    16    17    1
    30    16    36    1
    31    16    37    1
    32    17    38    1
    33    17    39    1
    34    18    20    1
    35    18    25    1
    36    18    19    1
    37    19    20    1
    38    19    40    1
    39    19    41    1
    40    20    21    1
    41    20    22    1
    42    22    23    1
    43    22    42    1
    44    22    43    1
    45    23    24    1
    46    23    44    1
    47    23    45    1
    48    24    25    1
    49    24    46    1
    50    24    47    1
    51    25    48    1
    52    25    49    1
@<TRIPOS>SUBSTRUCTURE
     1 ZINC001060620810        1 TEMP              0 ****  ****    0 ROOT


##########                                Name:    ZINC000518937710
##########                DOCK_Rotatable_Bonds:                   6
##########                         Heavy_Atoms:                  25
##########                    Molecular_Weight:             397.421
##########                DOCK_Rotatable_Bonds:                   6
##########                       Formal_Charge:          -0.0199997
##########                     HBond_Acceptors:                  11
##########                        HBond_Donors:                   0
##########                         Heavy_Atoms:                  25
##########                          Grid_Score:          -27.013296
##########                     Grid_vdw_energy:          -26.983809
##########                      Grid_es_energy:           -0.029487
##########           Internal_energy_repulsive:           16.714247

@<TRIPOS>MOLECULE
ZINC000518937710
 42 44 1 0 0
SMALL
USER_CHARGES


@<TRIPOS>ATOM
      1 C1        -10.9944    1.3845   59.1574 C.3     1  ZINC000518937710   -0.1900
      2 C2        -10.8217   -0.0661   58.7025 C.3     1  ZINC000518937710    0.1700
      3 H3        -11.7784   -0.4535   58.3525 H       1  ZINC000518937710    0.1100
      4 C4         -9.8002   -0.1256   57.5651 C.3     1  ZINC000518937710   -0.6600
      5 S5        -10.6682   -0.2915   55.9809 S.o2    1  ZINC000518937710    2.4000
      6 C6         -9.3356    0.0165   54.7894 C.3     1  ZINC000518937710   -0.6600
      7 O7        -11.0994   -1.6382   55.8397 O.2     1  ZINC000518937710   -0.9200
      8 O8        -11.6215    0.7569   55.8749 O.2     1  ZINC000518937710   -0.9300
      9 N9        -10.3483   -0.8774   59.8269 N.am    1  ZINC000518937710   -0.9600
     10 C10        -9.3709   -0.3254   60.7682 C.3     1  ZINC000518937710    0.0800
     11 C11        -8.1422   -1.1778   61.0916 C.3     1  ZINC000518937710   -0.1800
     12 C12        -8.0000    0.0673   60.2138 C.3     1  ZINC000518937710   -0.1800
     13 S13       -10.9181   -2.4185   60.0336 S.o2    1  ZINC000518937710    2.6900
     14 O14       -10.7027   -3.0945   58.8023 O.2     1  ZINC000518937710   -0.9400
     15 O15       -10.3961   -2.8764   61.2733 O.2     1  ZINC000518937710   -0.9400
     16 C16       -12.6644   -2.3055   60.2403 C.ar    1  ZINC000518937710   -0.6400
     17 C17       -13.1892   -1.7601   61.3970 C.ar    1  ZINC000518937710   -0.0300
     18 C18       -14.5588   -1.6698   61.5627 C.ar    1  ZINC000518937710   -0.1300
     19 C19       -15.4092   -2.1241   60.5721 C.ar    1  ZINC000518937710   -0.0300
     20 C20       -14.8903   -2.6720   59.4103 C.ar    1  ZINC000518937710    0.0200
     21 C21       -13.5106   -2.7582   59.2411 C.ar    1  ZINC000518937710    0.1900
     22 O22       -13.2546   -3.3290   58.0279 O.3     1  ZINC000518937710   -0.2800
     23 C23       -14.4858   -3.9631   57.6339 C.3     1  ZINC000518937710    0.5700
     24 F24       -14.6516   -3.8953   56.2464 F       1  ZINC000518937710   -0.1200
     25 F25       -14.5141   -5.2933   58.0665 F       1  ZINC000518937710   -0.1400
     26 O26       -15.4987   -3.1845   58.3010 O.3     1  ZINC000518937710   -0.2900
     27 H27       -10.0461    1.7602   59.5415 H       1  ZINC000518937710    0.1000
     28 H28       -11.3115    1.9950   58.3120 H       1  ZINC000518937710    0.0800
     29 H29       -11.7488    1.4316   59.9427 H       1  ZINC000518937710    0.0700
     30 H30        -9.2076    0.7892   57.5605 H       1  ZINC000518937710    0.1600
     31 H31        -9.1434   -0.9832   57.7110 H       1  ZINC000518937710    0.1400
     32 H32        -8.5898   -0.7747   54.8657 H       1  ZINC000518937710    0.1300
     33 H33        -9.7470    0.0317   53.7800 H       1  ZINC000518937710    0.1300
     34 H34        -8.8693    0.9775   55.0061 H       1  ZINC000518937710    0.1300
     35 H35        -9.7840    0.2872   61.5696 H       1  ZINC000518937710    0.1500
     36 H36        -7.7468   -1.1263   62.1061 H       1  ZINC000518937710    0.1100
     37 H37        -8.0611   -2.1493   60.6040 H       1  ZINC000518937710    0.1000
     38 H38        -7.8253   -0.0851   59.1488 H       1  ZINC000518937710    0.1000
     39 H39        -7.5110    0.9380   60.6509 H       1  ZINC000518937710    0.1000
     40 H40       -12.5280   -1.4040   62.1732 H       1  ZINC000518937710    0.1600
     41 H41       -14.9651   -1.2437   62.4681 H       1  ZINC000518937710    0.1600
     42 H42       -16.4787   -2.0523   60.7043 H       1  ZINC000518937710    0.1500
@<TRIPOS>BOND
     1     1     2    1
     2     1    27    1
     3     1    28    1
     4     1    29    1
     5     2     3    1
     6     2     4    1
     7     2     9    1
     8     4     5    1
     9     4    30    1
    10     4    31    1
    11     5     6    1
    12     5     7    2
    13     5     8    2
    14     6    32    1
    15     6    33    1
    16     6    34    1
    17     9    10    1
    18     9    13   am
    19    10    12    1
    20    10    11    1
    21    10    35    1
    22    11    12    1
    23    11    36    1
    24    11    37    1
    25    12    38    1
    26    12    39    1
    27    13    14    2
    28    13    15    2
    29    13    16    1
    30    16    21   ar
    31    16    17   ar
    32    17    18   ar
    33    17    40    1
    34    18    19   ar
    35    18    41    1
    36    19    20   ar
    37    19    42    1
    38    20    26    1
    39    20    21   ar
    40    21    22    1
    41    22    23    1
    42    23    24    1
    43    23    25    1
    44    23    26    1
@<TRIPOS>SUBSTRUCTURE
     1 ZINC000518937710        1 TEMP              0 ****  ****    0 ROOT


##########                                Name:    ZINC000437443367
##########                DOCK_Rotatable_Bonds:                   8
##########                         Heavy_Atoms:                  24
##########                    Molecular_Weight:             334.434
##########                DOCK_Rotatable_Bonds:                   8
##########                       Formal_Charge:          -0.0500003
##########                     HBond_Acceptors:                   5
##########                        HBond_Donors:                   1
##########                         Heavy_Atoms:                  24
##########                          Grid_Score:          -27.007744
##########                     Grid_vdw_energy:          -24.329033
##########                      Grid_es_energy:           -2.678711
##########           Internal_energy_repulsive:           22.328449

@<TRIPOS>MOLECULE
ZINC000437443367
 51 52 1 0 0
SMALL
USER_CHARGES


@<TRIPOS>ATOM
      1 C1         -1.9370    2.1182   45.9534 C.3     1  ZINC000437443367   -0.1200
      2 C2         -1.6605    2.8340   47.2503 C.ar    1  ZINC000437443367   -0.1000
      3 C3         -2.2953    2.4325   48.4088 C.ar    1  ZINC000437443367   -0.1200
      4 C4         -2.0399    3.0928   49.6042 C.ar    1  ZINC000437443367    0.1400
      5 N5         -2.6812    2.6877   50.7787 N.am    1  ZINC000437443367   -0.6400
      6 C6         -3.5278    3.5266   51.4080 C.2     1  ZINC000437443367    0.5000
      7 O7         -3.7335    4.6338   50.9553 O.2     1  ZINC000437443367   -0.4800
      8 C8         -4.2128    3.0938   52.6626 C.2     1  ZINC000437443367    0.5100
      9 O9         -5.3479    2.6668   52.6179 O.2     1  ZINC000437443367   -0.5200
     10 N10        -3.5703    3.1774   53.8445 N.am    1  ZINC000437443367   -0.5700
     11 C11        -4.2421    2.7528   55.0752 C.3     1  ZINC000437443367    0.0900
     12 C12        -5.2497    3.8226   55.5012 C.3     1  ZINC000437443367   -0.1200
     13 C13        -6.3339    3.1841   56.3716 C.3     1  ZINC000437443367   -0.0900
     14 C14        -5.6910    2.5620   57.6128 C.3     1  ZINC000437443367   -0.1400
     15 C15        -7.3397    4.2544   56.8003 C.3     1  ZINC000437443367   -0.1500
     16 C16        -2.2000    3.6928   53.8982 C.3     1  ZINC000437443367    0.1300
     17 C17        -2.1659    5.0221   54.6803 C.3     1  ZINC000437443367   -0.1300
     18 C18        -1.7775    4.6055   56.1207 C.3     1  ZINC000437443367   -0.1300
     19 C19        -0.7450    3.4757   55.8831 C.3     1  ZINC000437443367   -0.1200
     20 C20        -1.2967    2.7095   54.6631 C.3     1  ZINC000437443367   -0.1400
     21 C21        -1.1462    4.1557   49.6310 C.ar    1  ZINC000437443367   -0.1100
     22 C22        -0.5135    4.5539   48.4697 C.ar    1  ZINC000437443367   -0.1300
     23 C23        -0.7653    3.8906   47.2804 C.ar    1  ZINC000437443367    0.0800
     24 F24        -0.1453    4.2818   46.1456 F       1  ZINC000437443367   -0.1400
     25 H25        -1.2371    1.2905   45.8388 H       1  ZINC000437443367    0.0800
     26 H26        -2.9567    1.7332   45.9611 H       1  ZINC000437443367    0.0700
     27 H27        -1.8172    2.8130   45.1222 H       1  ZINC000437443367    0.0700
     28 H28        -2.9901    1.6060   48.3857 H       1  ZINC000437443367    0.1400
     29 H29        -2.5170    1.8028   51.1405 H       1  ZINC000437443367    0.4200
     30 H30        -4.7636    1.8123   54.8985 H       1  ZINC000437443367    0.0900
     31 H31        -3.5025    2.6157   55.8641 H       1  ZINC000437443367    0.1000
     32 H32        -4.7373    4.5984   56.0699 H       1  ZINC000437443367    0.0700
     33 H33        -5.7075    4.2636   54.6157 H       1  ZINC000437443367    0.0600
     34 H34        -6.8479    2.4098   55.8019 H       1  ZINC000437443367    0.0600
     35 H35        -5.1770    3.3363   58.1823 H       1  ZINC000437443367    0.0600
     36 H36        -6.4634    2.1072   58.2328 H       1  ZINC000437443367    0.0400
     37 H37        -4.9745    1.7995   57.3073 H       1  ZINC000437443367    0.0600
     38 H38        -7.7978    4.6975   55.9161 H       1  ZINC000437443367    0.0500
     39 H39        -8.1122    3.7995   57.4204 H       1  ZINC000437443367    0.0500
     40 H40        -6.8258    5.0286   57.3698 H       1  ZINC000437443367    0.0500
     41 H41        -1.8179    3.8429   52.8885 H       1  ZINC000437443367    0.1000
     42 H42        -1.4149    5.6919   54.2615 H       1  ZINC000437443367    0.0800
     43 H43        -3.1478    5.4951   54.6716 H       1  ZINC000437443367    0.0700
     44 H44        -1.3216    5.4394   56.6544 H       1  ZINC000437443367    0.0700
     45 H45        -2.6457    4.2281   56.6610 H       1  ZINC000437443367    0.0700
     46 H46         0.2353    3.8957   55.6584 H       1  ZINC000437443367    0.0700
     47 H47        -0.6901    2.8201   56.7523 H       1  ZINC000437443367    0.0700
     48 H48        -1.8777    1.8488   54.9941 H       1  ZINC000437443367    0.0800
     49 H49        -0.4756    2.3830   54.0247 H       1  ZINC000437443367    0.0700
     50 H50        -0.9465    4.6706   50.5590 H       1  ZINC000437443367    0.1600
     51 H51         0.1816    5.3803   48.4899 H       1  ZINC000437443367    0.1400
@<TRIPOS>BOND
     1     1     2    1
     2     1    25    1
     3     1    26    1
     4     1    27    1
     5     2    23   ar
     6     2     3   ar
     7     3     4   ar
     8     3    28    1
     9     4     5    1
    10     4    21   ar
    11     5     6   am
    12     5    29    1
    13     6     7    2
    14     6     8    1
    15     8     9    2
    16     8    10   am
    17    10    11    1
    18    10    16    1
    19    11    12    1
    20    11    30    1
    21    11    31    1
    22    12    13    1
    23    12    32    1
    24    12    33    1
    25    13    14    1
    26    13    15    1
    27    13    34    1
    28    14    35    1
    29    14    36    1
    30    14    37    1
    31    15    38    1
    32    15    39    1
    33    15    40    1
    34    16    20    1
    35    16    17    1
    36    16    41    1
    37    17    18    1
    38    17    42    1
    39    17    43    1
    40    18    19    1
    41    18    44    1
    42    18    45    1
    43    19    20    1
    44    19    46    1
    45    19    47    1
    46    20    48    1
    47    20    49    1
    48    21    22   ar
    49    21    50    1
    50    22    23   ar
    51    22    51    1
    52    23    24    1
@<TRIPOS>SUBSTRUCTURE
     1 ZINC000437443367        1 TEMP              0 ****  ****    0 ROOT


##########                                Name:    ZINC001176298561
##########                DOCK_Rotatable_Bonds:                   6
##########                         Heavy_Atoms:                  23
##########                    Molecular_Weight:             337.781
##########                DOCK_Rotatable_Bonds:                   6
##########                       Formal_Charge:          -0.0100003
##########                     HBond_Acceptors:                   7
##########                        HBond_Donors:                   2
##########                         Heavy_Atoms:                  23
##########                          Grid_Score:          -27.002361
##########                     Grid_vdw_energy:          -24.111374
##########                      Grid_es_energy:           -2.890987
##########           Internal_energy_repulsive:           10.539090

@<TRIPOS>MOLECULE
ZINC001176298561
 40 41 1 0 0
SMALL
USER_CHARGES


@<TRIPOS>ATOM
      1 C1         -7.7272    3.2334   65.6502 C.3     1  ZINC001176298561   -0.1700
      2 C2         -6.7774    2.1384   65.1606 C.3     1  ZINC001176298561    0.1100
      3 N3         -6.6978    1.0758   66.1659 N.am    1  ZINC001176298561   -0.6100
      4 C4         -5.7998    1.2196   67.3144 C.3     1  ZINC001176298561    0.0900
      5 C5         -4.4154    0.6792   66.9502 C.3     1  ZINC001176298561   -0.1800
      6 C6         -7.4509   -0.0341   66.0342 C.2     1  ZINC001176298561    0.5600
      7 O7         -7.3849   -0.9159   66.8683 O.2     1  ZINC001176298561   -0.5300
      8 C8         -8.3575   -0.1794   64.8750 C.ar    1  ZINC001176298561   -0.0600
      9 C9         -9.6701    0.2886   64.9503 C.ar    1  ZINC001176298561   -0.1900
     10 C10       -10.5159    0.1515   63.8651 C.ar    1  ZINC001176298561    0.1400
     11 F11       -11.7862    0.6054   63.9394 F       1  ZINC001176298561   -0.1300
     12 C12       -10.0645   -0.4489   62.7026 C.ar    1  ZINC001176298561   -0.1800
     13 C13        -8.7584   -0.9176   62.6196 C.ar    1  ZINC001176298561    0.2400
     14 N14        -8.3070   -1.5225   61.4443 N.pl3   1  ZINC001176298561   -0.6700
     15 C15        -9.0949   -1.4796   60.2878 C.2     1  ZINC001176298561    0.0400
     16 C16        -9.9914   -2.4789   60.0236 C.2     1  ZINC001176298561   -0.0300
     17 C17       -10.7691   -2.4113   58.8578 C.2     1  ZINC001176298561   -0.1300
     18 Cl18      -11.9126   -3.6686   58.5036 Cl      1  ZINC001176298561   -0.0400
     19 C19       -10.6284   -1.3663   58.0096 C.2     1  ZINC001176298561    0.1400
     20 N20        -9.7370   -0.3718   58.2711 N.am    1  ZINC001176298561   -0.6000
     21 C21        -8.9779   -0.4016   59.3830 C.2     1  ZINC001176298561    0.5100
     22 O22        -8.1830    0.4980   59.6042 O.2     1  ZINC001176298561   -0.5200
     23 C23        -7.9015   -0.7792   63.7013 C.ar    1  ZINC001176298561   -0.1300
     24 H24        -7.7865    4.0241   64.9021 H       1  ZINC001176298561    0.0700
     25 H25        -8.7186    2.8097   65.8101 H       1  ZINC001176298561    0.0600
     26 H26        -7.3532    3.6467   66.5868 H       1  ZINC001176298561    0.0600
     27 H27        -7.1514    1.7251   64.2239 H       1  ZINC001176298561    0.0800
     28 H28        -5.7860    2.5622   65.0005 H       1  ZINC001176298561    0.0900
     29 H29        -5.7194    2.2729   67.5832 H       1  ZINC001176298561    0.0900
     30 H30        -6.1981    0.6583   68.1596 H       1  ZINC001176298561    0.0800
     31 H31        -4.1700    0.9680   65.9282 H       1  ZINC001176298561    0.0700
     32 H32        -3.6729    1.0924   67.6330 H       1  ZINC001176298561    0.0700
     33 H33        -4.4172   -0.4079   67.0301 H       1  ZINC001176298561    0.0600
     34 H34       -10.0253    0.7572   65.8562 H       1  ZINC001176298561    0.1500
     35 H35       -10.7290   -0.5539   61.8578 H       1  ZINC001176298561    0.1300
     36 H36        -7.4478   -1.9723   61.4294 H       1  ZINC001176298561    0.4200
     37 H37       -10.0991   -3.3102   60.7045 H       1  ZINC001176298561    0.1500
     38 H38       -11.2305   -1.3212   57.1142 H       1  ZINC001176298561    0.1800
     39 H39        -9.6501    0.3691   57.6509 H       1  ZINC001176298561    0.4300
     40 H40        -6.8865   -1.1429   63.6381 H       1  ZINC001176298561    0.1400
@<TRIPOS>BOND
     1     1     2    1
     2     1    24    1
     3     1    25    1
     4     1    26    1
     5     2     3    1
     6     2    27    1
     7     2    28    1
     8     3     4    1
     9     3     6   am
    10     4     5    1
    11     4    29    1
    12     4    30    1
    13     5    31    1
    14     5    32    1
    15     5    33    1
    16     6     7    2
    17     6     8    1
    18     8    23   ar
    19     8     9   ar
    20     9    10   ar
    21     9    34    1
    22    10    11    1
    23    10    12   ar
    24    12    13   ar
    25    12    35    1
    26    13    14    1
    27    13    23   ar
    28    14    15    1
    29    14    36    1
    30    15    21    1
    31    15    16    2
    32    16    17    1
    33    16    37    1
    34    17    18    1
    35    17    19    2
    36    19    20    1
    37    19    38    1
    38    20    21   am
    39    20    39    1
    40    21    22    2
    41    23    40    1
@<TRIPOS>SUBSTRUCTURE
     1 ZINC001176298561        1 TEMP              0 ****  ****    0 ROOT


##########                                Name:    ZINC001173835973
##########                DOCK_Rotatable_Bonds:                   4
##########                         Heavy_Atoms:                  26
##########                    Molecular_Weight:             343.388
##########                DOCK_Rotatable_Bonds:                   4
##########                       Formal_Charge:           -0.010001
##########                     HBond_Acceptors:                   6
##########                        HBond_Donors:                   4
##########                         Heavy_Atoms:                  26
##########                          Grid_Score:          -26.998236
##########                     Grid_vdw_energy:          -25.675596
##########                      Grid_es_energy:           -1.322640
##########           Internal_energy_repulsive:          148.548935

@<TRIPOS>MOLECULE
ZINC001173835973
 43 46 1 0 0
SMALL
USER_CHARGES


@<TRIPOS>ATOM
      1 C1         -6.8658    0.1731   67.7791 C.3     1  ZINC001173835973   -0.1700
      2 C2         -7.4661    0.5732   66.4560 C.2     1  ZINC001173835973    0.5100
      3 O3         -8.2052    1.5327   66.3907 O.2     1  ZINC001173835973   -0.5200
      4 N4         -7.1815   -0.1350   65.3452 N.am    1  ZINC001173835973   -0.6800
      5 C5         -7.7388    0.2365   64.1166 C.ar    1  ZINC001173835973    0.1800
      6 C6         -8.6706    1.2652   64.0585 C.ar    1  ZINC001173835973   -0.1900
      7 C7         -9.2218    1.6331   62.8457 C.ar    1  ZINC001173835973   -0.0600
      8 C8         -8.8481    0.9802   61.6874 C.ar    1  ZINC001173835973   -0.1900
      9 C9         -7.9161   -0.0501   61.7385 C.ar    1  ZINC001173835973    0.2200
     10 N10        -7.5387   -0.7100   60.5673 N.pl3   1  ZINC001173835973   -0.6900
     11 C11        -8.3982   -0.7216   59.4625 C.ar    1  ZINC001173835973    0.0400
     12 C12        -9.4341   -1.6077   59.4204 C.ar    1  ZINC001173835973    0.2400
     13 N13        -9.6295   -2.4984   60.4820 N.pl3   1  ZINC001173835973   -0.8600
     14 C14       -10.3402   -1.6339   58.2774 C.ar    1  ZINC001173835973   -0.1100
     15 C15       -11.4089   -2.5437   58.2286 C.ar    1  ZINC001173835973   -0.0600
     16 C16       -12.2276   -2.5235   57.1319 C.ar    1  ZINC001173835973   -0.1700
     17 C17       -11.9867   -1.6170   56.1064 C.ar    1  ZINC001173835973    0.1200
     18 N18       -10.9847   -0.7691   56.1597 N.ar    1  ZINC001173835973   -0.4400
     19 C19       -10.1543   -0.7403   57.1996 C.ar    1  ZINC001173835973    0.1900
     20 C20        -9.0395    0.2133   57.2449 C.ar    1  ZINC001173835973    0.1300
     21 N21        -8.8345    1.0700   56.2469 N.ar    1  ZINC001173835973   -0.4400
     22 C22        -7.8408    1.9288   56.2744 C.ar    1  ZINC001173835973    0.1000
     23 C23        -6.9570    1.9841   57.3453 C.ar    1  ZINC001173835973   -0.1500
     24 C24        -7.1146    1.1292   58.4026 C.ar    1  ZINC001173835973   -0.0700
     25 C25        -8.1826    0.2182   58.3676 C.ar    1  ZINC001173835973   -0.0400
     26 C26        -7.3570   -0.4183   62.9545 C.ar    1  ZINC001173835973   -0.1900
     27 H27        -7.2080    0.8577   68.5552 H       1  ZINC001173835973    0.1000
     28 H28        -7.1767   -0.8418   68.0270 H       1  ZINC001173835973    0.0900
     29 H29        -5.7787    0.2140   67.7120 H       1  ZINC001173835973    0.0900
     30 H30        -6.5903   -0.9022   65.3973 H       1  ZINC001173835973    0.4100
     31 H31        -8.9650    1.7779   64.9623 H       1  ZINC001173835973    0.1200
     32 H32        -9.9465    2.4327   62.8037 H       1  ZINC001173835973    0.1200
     33 H33        -9.2806    1.2700   60.7413 H       1  ZINC001173835973    0.1200
     34 H34        -6.6809   -1.1602   60.5191 H       1  ZINC001173835973    0.4000
     35 H35        -9.0808   -2.4309   61.2790 H       1  ZINC001173835973    0.4100
     36 H36       -10.3139   -3.1831   60.4208 H       1  ZINC001173835973    0.4000
     37 H37       -11.5801   -3.2412   59.0352 H       1  ZINC001173835973    0.1400
     38 H38       -13.0582   -3.2105   57.0634 H       1  ZINC001173835973    0.1400
     39 H39       -12.6384   -1.6095   55.2453 H       1  ZINC001173835973    0.1700
     40 H40        -7.7075    2.6076   55.4450 H       1  ZINC001173835973    0.1600
     41 H41        -6.1479    2.6994   57.3433 H       1  ZINC001173835973    0.1400
     42 H42        -6.4374    1.1572   59.2435 H       1  ZINC001173835973    0.1400
     43 H43        -6.6325   -1.2180   62.9971 H       1  ZINC001173835973    0.1400
@<TRIPOS>BOND
     1     1     2    1
     2     1    27    1
     3     1    28    1
     4     1    29    1
     5     2     3    2
     6     2     4   am
     7     4     5    1
     8     4    30    1
     9     5    26   ar
    10     5     6   ar
    11     6     7   ar
    12     6    31    1
    13     7     8   ar
    14     7    32    1
    15     8     9   ar
    16     8    33    1
    17     9    10    1
    18     9    26   ar
    19    10    11    1
    20    10    34    1
    21    11    25   ar
    22    11    12   ar
    23    12    13    1
    24    12    14   ar
    25    13    35    1
    26    13    36    1
    27    14    19   ar
    28    14    15   ar
    29    15    16   ar
    30    15    37    1
    31    16    17   ar
    32    16    38    1
    33    17    18   ar
    34    17    39    1
    35    18    19   ar
    36    19    20   ar
    37    20    25   ar
    38    20    21   ar
    39    21    22   ar
    40    22    23   ar
    41    22    40    1
    42    23    24   ar
    43    23    41    1
    44    24    25   ar
    45    24    42    1
    46    26    43    1
@<TRIPOS>SUBSTRUCTURE
     1 ZINC001173835973        1 TEMP              0 ****  ****    0 ROOT


##########                                Name:    ZINC000478980774
##########                DOCK_Rotatable_Bonds:                   4
##########                         Heavy_Atoms:                  26
##########                    Molecular_Weight:             401.818
##########                DOCK_Rotatable_Bonds:                   4
##########                       Formal_Charge:          -0.0100001
##########                     HBond_Acceptors:                   9
##########                        HBond_Donors:                   1
##########                         Heavy_Atoms:                  26
##########                          Grid_Score:          -26.950829
##########                     Grid_vdw_energy:          -25.649111
##########                      Grid_es_energy:           -1.301718
##########           Internal_energy_repulsive:            6.684431

@<TRIPOS>MOLECULE
ZINC000478980774
 40 42 1 0 0
SMALL
USER_CHARGES


@<TRIPOS>ATOM
      1 C1         -2.7287    6.5242   50.9420 C.3     1  ZINC000478980774   -0.1400
      2 C2         -3.3678    5.1676   50.6389 C.3     1  ZINC000478980774   -0.4600
      3 H3         -4.3576    5.3202   50.2086 H       1  ZINC000478980774    0.1500
      4 C4         -2.5053    4.4134   49.6599 C.2     1  ZINC000478980774    0.5400
      5 O5         -1.9099    5.0124   48.7894 O.2     1  ZINC000478980774   -0.5000
      6 N6         -2.3957    3.0732   49.7516 N.am    1  ZINC000478980774   -0.6600
      7 C7         -1.5940    2.3721   48.8415 C.ar    1  ZINC000478980774    0.1600
      8 C8         -0.4057    1.7935   49.2655 C.ar    1  ZINC000478980774   -0.1200
      9 C9          0.3867    1.1019   48.3686 C.ar    1  ZINC000478980774   -0.0600
     10 C10        -0.0024    0.9841   47.0446 C.ar    1  ZINC000478980774    0.0100
     11 O11         0.5893    0.3663   45.9797 O.3     1  ZINC000478980774   -0.2900
     12 C12        -0.4492    0.2237   44.9926 C.3     1  ZINC000478980774    0.5700
     13 F13         0.0771    0.3546   43.7029 F       1  ZINC000478980774   -0.1100
     14 F14        -1.0969   -1.0081   45.1349 F       1  ZINC000478980774   -0.1500
     15 O15        -1.3497    1.3088   45.2839 O.3     1  ZINC000478980774   -0.2800
     16 C16        -1.1949    1.5636   46.6160 C.ar    1  ZINC000478980774    0.0500
     17 C17        -1.9907    2.2512   47.5163 C.ar    1  ZINC000478980774   -0.0900
     18 S18        -3.5165    4.2127   52.1741 S.o     1  ZINC000478980774    1.3000
     19 O19        -2.2236    3.9861   52.7182 O.2     1  ZINC000478980774   -0.7800
     20 C20        -4.4427    5.3307   53.2617 C.3     1  ZINC000478980774   -0.4300
     21 C21        -4.6513    4.6705   54.6004 C.ar    1  ZINC000478980774   -0.0600
     22 C22        -3.9957    5.1514   55.7178 C.ar    1  ZINC000478980774   -0.1100
     23 C23        -4.1868    4.5459   56.9460 C.ar    1  ZINC000478980774   -0.1100
     24 C24        -5.0333    3.4589   57.0568 C.ar    1  ZINC000478980774   -0.1100
     25 C25        -5.6897    2.9769   55.9398 C.ar    1  ZINC000478980774   -0.1100
     26 C26        -5.5036    3.5862   54.7120 C.ar    1  ZINC000478980774   -0.0300
     27 Cl27       -6.3276    2.9814   53.3086 Cl      1  ZINC000478980774   -0.0600
     28 H28        -3.3525    7.0696   51.6501 H       1  ZINC000478980774    0.0800
     29 H29        -1.7389    6.3715   51.3723 H       1  ZINC000478980774    0.0700
     30 H30        -2.6392    7.0979   50.0196 H       1  ZINC000478980774    0.0700
     31 H31        -2.8720    2.5941   50.4476 H       1  ZINC000478980774    0.4200
     32 H32        -0.0997    1.8841   50.2973 H       1  ZINC000478980774    0.1500
     33 H33         1.3109    0.6528   48.7009 H       1  ZINC000478980774    0.1500
     34 H34        -2.9177    2.6968   47.1873 H       1  ZINC000478980774    0.1600
     35 H35        -3.8809    6.2550   53.3961 H       1  ZINC000478980774    0.1100
     36 H36        -5.4102    5.5554   52.8129 H       1  ZINC000478980774    0.1300
     37 H37        -3.3336    6.0003   55.6316 H       1  ZINC000478980774    0.1400
     38 H38        -3.6742    4.9221   57.8190 H       1  ZINC000478980774    0.1300
     39 H39        -5.1817    2.9858   58.0163 H       1  ZINC000478980774    0.1300
     40 H40        -6.3512    2.1276   56.0266 H       1  ZINC000478980774    0.1300
@<TRIPOS>BOND
     1     1     2    1
     2     1    28    1
     3     1    29    1
     4     1    30    1
     5     2     3    1
     6     2     4    1
     7     2    18    1
     8     4     5    2
     9     4     6   am
    10     6     7    1
    11     6    31    1
    12     7    17   ar
    13     7     8   ar
    14     8     9   ar
    15     8    32    1
    16     9    10   ar
    17     9    33    1
    18    10    16   ar
    19    10    11    1
    20    11    12    1
    21    12    13    1
    22    12    14    1
    23    12    15    1
    24    15    16    1
    25    16    17   ar
    26    17    34    1
    27    18    19    2
    28    18    20    1
    29    20    21    1
    30    20    35    1
    31    20    36    1
    32    21    26   ar
    33    21    22   ar
    34    22    23   ar
    35    22    37    1
    36    23    24   ar
    37    23    38    1
    38    24    25   ar
    39    24    39    1
    40    25    26   ar
    41    25    40    1
    42    26    27    1
@<TRIPOS>SUBSTRUCTURE
     1 ZINC000478980774        1 TEMP              0 ****  ****    0 ROOT


##########                                Name:    ZINC000944933040
##########                DOCK_Rotatable_Bonds:                   4
##########                         Heavy_Atoms:                  26
##########                    Molecular_Weight:             354.449
##########                DOCK_Rotatable_Bonds:                   4
##########                       Formal_Charge:           0.0100002
##########                     HBond_Acceptors:                   5
##########                        HBond_Donors:                   0
##########                         Heavy_Atoms:                  26
##########                          Grid_Score:          -26.948090
##########                     Grid_vdw_energy:          -26.407406
##########                      Grid_es_energy:           -0.540684
##########           Internal_energy_repulsive:            9.892832

@<TRIPOS>MOLECULE
ZINC000944933040
 52 57 1 0 0
SMALL
USER_CHARGES


@<TRIPOS>ATOM
      1 O1         -1.3493   -0.2017   45.6632 O.2     1  ZINC000944933040   -0.5200
      2 C2         -0.7367    0.8449   45.7546 C.2     1  ZINC000944933040    0.6400
      3 C3          0.3199    1.1389   44.8337 C.1     1  ZINC000944933040   -0.2200
      4 C4          1.1860    1.3798   44.0787 C.1     1  ZINC000944933040   -0.0400
      5 C5          2.2720    1.6819   43.1321 C.3     1  ZINC000944933040   -0.0700
      6 C6          3.4831    0.7469   43.1247 C.3     1  ZINC000944933040   -0.1600
      7 C7          2.4835    0.7131   41.9669 C.3     1  ZINC000944933040   -0.1600
      8 N8         -1.0558    1.7306   46.7190 N.am    1  ZINC000944933040   -0.6000
      9 C9         -0.3308    3.0032   46.8311 C.3     1  ZINC000944933040    0.1100
     10 C10         0.2393    3.1227   48.2495 C.3     1  ZINC000944933040   -0.1200
     11 C11        -0.8827    2.8967   49.2600 C.3     1  ZINC000944933040   -0.0900
     12 C12        -0.4789    3.2095   50.7074 C.3     1  ZINC000944933040    0.1200
     13 N13        -1.8024    3.8532   50.8278 N.am    1  ZINC000944933040   -0.6400
     14 C14        -2.6289    4.1269   51.8567 C.2     1  ZINC000944933040    0.5500
     15 O15        -3.6883    4.6809   51.6526 O.2     1  ZINC000944933040   -0.5300
     16 C16        -2.2367    3.7446   53.2606 C.3     1  ZINC000944933040   -0.1300
     17 H17        -1.5583    2.8914   53.2517 H       1  ZINC000944933040    0.1100
     18 C18        -3.4917    3.4392   54.1175 C.3     1  ZINC000944933040   -0.1300
     19 C19        -3.4112    4.5142   55.2425 C.3     1  ZINC000944933040    0.0900
     20 H20        -4.3535    4.7399   55.7417 H       1  ZINC000944933040    0.1300
     21 O21        -2.7884    5.6309   54.5266 O.3     1  ZINC000944933040   -0.3600
     22 C22        -1.5929    4.9541   54.0027 C.3     1  ZINC000944933040    0.1200
     23 H23        -0.9192    5.5750   53.4123 H       1  ZINC000944933040    0.1400
     24 C24        -0.9832    4.3606   55.3081 C.3     1  ZINC000944933040   -0.2000
     25 H25        -0.1414    3.6742   55.2176 H       1  ZINC000944933040    0.1200
     26 C26        -1.2003    5.1468   56.6027 C.3     1  ZINC000944933040   -0.1300
     27 C27        -2.2554    4.0467   56.1771 C.3     1  ZINC000944933040   -0.2000
     28 H28        -2.3721    3.1398   56.7705 H       1  ZINC000944933040    0.1300
     29 C29        -1.8572    4.0777   49.3694 C.3     1  ZINC000944933040    0.1100
     30 C30        -1.5759    1.5463   49.0967 C.3     1  ZINC000944933040   -0.1100
     31 C31        -2.1376    1.4397   47.6691 C.3     1  ZINC000944933040    0.1100
     32 H32         2.4520    2.7405   42.9455 H       1  ZINC000944933040    0.1400
     33 H33         4.4602    1.1905   42.9332 H       1  ZINC000944933040    0.1100
     34 H34         3.4756   -0.0919   43.8207 H       1  ZINC000944933040    0.1000
     35 H35         1.8184   -0.1479   41.9012 H       1  ZINC000944933040    0.1000
     36 H36         2.8029    1.1345   41.0137 H       1  ZINC000944933040    0.1100
     37 H37         0.4835    3.0248   46.1069 H       1  ZINC000944933040    0.0900
     38 H38        -1.0139    3.8309   46.6409 H       1  ZINC000944933040    0.0800
     39 H39         1.0166    2.3723   48.3942 H       1  ZINC000944933040    0.0800
     40 H40         0.6613    4.1177   48.3900 H       1  ZINC000944933040    0.0900
     41 H41        -0.3621    2.3242   51.3323 H       1  ZINC000944933040    0.0800
     42 H42         0.3570    3.9041   50.7903 H       1  ZINC000944933040    0.0900
     43 H43        -4.4007    3.5635   53.5290 H       1  ZINC000944933040    0.0800
     44 H44        -3.4371    2.4352   54.5382 H       1  ZINC000944933040    0.0900
     45 H45        -0.5575    4.9062   57.4496 H       1  ZINC000944933040    0.1000
     46 H46        -1.4822    6.1957   56.5116 H       1  ZINC000944933040    0.1000
     47 H47        -1.4308    5.0303   49.0548 H       1  ZINC000944933040    0.0900
     48 H48        -2.8357    3.8824   48.9309 H       1  ZINC000944933040    0.0800
     49 H49        -0.8575    0.7448   49.2688 H       1  ZINC000944933040    0.0800
     50 H50        -2.3918    1.4663   49.8148 H       1  ZINC000944933040    0.0800
     51 H51        -2.9472    2.1581   47.5404 H       1  ZINC000944933040    0.0700
     52 H52        -2.5113    0.4302   47.4978 H       1  ZINC000944933040    0.1000
@<TRIPOS>BOND
     1     1     2    2
     2     2     3    1
     3     2     8   am
     4     3     4    3
     5     4     5    1
     6     5     7    1
     7     5     6    1
     8     5    32    1
     9     6     7    1
    10     6    33    1
    11     6    34    1
    12     7    35    1
    13     7    36    1
    14     8    31    1
    15     8     9    1
    16     9    10    1
    17     9    37    1
    18     9    38    1
    19    10    11    1
    20    10    39    1
    21    10    40    1
    22    11    29    1
    23    11    12    1
    24    11    30    1
    25    12    13    1
    26    12    41    1
    27    12    42    1
    28    13    14   am
    29    13    29    1
    30    14    15    2
    31    14    16    1
    32    16    17    1
    33    16    22    1
    34    16    18    1
    35    18    19    1
    36    18    43    1
    37    18    44    1
    38    19    20    1
    39    19    27    1
    40    19    21    1
    41    21    22    1
    42    22    23    1
    43    22    24    1
    44    24    25    1
    45    24    27    1
    46    24    26    1
    47    26    27    1
    48    26    45    1
    49    26    46    1
    50    27    28    1
    51    29    47    1
    52    29    48    1
    53    30    31    1
    54    30    49    1
    55    30    50    1
    56    31    51    1
    57    31    52    1
@<TRIPOS>SUBSTRUCTURE
     1 ZINC000944933040        1 TEMP              0 ****  ****    0 ROOT


##########                                Name:    ZINC000864477301
##########                DOCK_Rotatable_Bonds:                   6
##########                         Heavy_Atoms:                  26
##########                    Molecular_Weight:             393.891
##########                DOCK_Rotatable_Bonds:                   6
##########                       Formal_Charge:         -0.00999978
##########                     HBond_Acceptors:                   7
##########                        HBond_Donors:                   1
##########                         Heavy_Atoms:                  26
##########                          Grid_Score:          -26.907539
##########                     Grid_vdw_energy:          -26.121519
##########                      Grid_es_energy:           -0.786021
##########           Internal_energy_repulsive:            9.796286

@<TRIPOS>MOLECULE
ZINC000864477301
 46 47 1 0 0
SMALL
USER_CHARGES


@<TRIPOS>ATOM
      1 C1        -16.8977    0.4737   58.6206 C.3     1  ZINC000864477301   -0.1500
      2 C2        -17.3031   -0.9636   58.2883 C.3     1  ZINC000864477301    0.0600
      3 O3        -17.3035   -1.7594   59.5028 O.3     1  ZINC000864477301   -0.3500
      4 C4        -16.1036   -2.0877   60.0195 C.2     1  ZINC000864477301    0.5100
      5 O5        -15.8604   -1.8542   61.1865 O.2     1  ZINC000864477301   -0.5000
      6 C6        -15.0834   -2.7315   59.1669 C.ar    1  ZINC000864477301   -0.1400
      7 C7        -15.1961   -4.0836   58.8381 C.ar    1  ZINC000864477301   -0.0300
      8 C8        -14.2396   -4.6785   58.0415 C.ar    1  ZINC000864477301   -0.1500
      9 C9        -13.1704   -3.9386   57.5691 C.ar    1  ZINC000864477301   -0.0100
     10 C10       -13.0525   -2.5979   57.8912 C.ar    1  ZINC000864477301   -0.4900
     11 S11       -11.6866   -1.6649   57.2842 S.o     1  ZINC000864477301    1.3800
     12 O12       -11.5841   -0.6015   58.2213 O.2     1  ZINC000864477301   -0.8100
     13 C13       -12.3023   -1.0210   55.7040 C.3     1  ZINC000864477301   -0.4600
     14 H14       -12.4811   -1.8497   55.0190 H       1  ZINC000864477301    0.1400
     15 C15       -13.6095   -0.2611   55.9376 C.3     1  ZINC000864477301   -0.1400
     16 C16       -11.2789   -0.0888   55.1084 C.2     1  ZINC000864477301    0.5500
     17 O17       -11.5699    1.0668   54.8826 O.2     1  ZINC000864477301   -0.5100
     18 N18       -10.0403   -0.5392   54.8266 N.am    1  ZINC000864477301   -0.6800
     19 C19        -9.0897    0.3267   54.2733 C.ar    1  ZINC000864477301    0.1400
     20 C20        -8.7333    0.2061   52.9372 C.ar    1  ZINC000864477301   -0.0600
     21 C21        -9.3694   -0.8576   52.0800 C.3     1  ZINC000864477301   -0.1100
     22 C22        -7.7952    1.0625   52.3937 C.ar    1  ZINC000864477301   -0.1100
     23 C23        -7.2111    2.0392   53.1788 C.ar    1  ZINC000864477301   -0.1000
     24 C24        -7.5631    2.1624   54.5107 C.ar    1  ZINC000864477301   -0.1100
     25 C25        -8.5050    1.3129   55.0591 C.ar    1  ZINC000864477301   -0.0200
     26 Cl26       -8.9470    1.4682   56.7306 Cl      1  ZINC000864477301   -0.0600
     27 C27       -14.0048   -1.9890   58.6815 C.ar    1  ZINC000864477301    0.0100
     28 H28       -17.6076    0.8964   59.3316 H       1  ZINC000864477301    0.0700
     29 H29       -15.8993    0.4778   59.0579 H       1  ZINC000864477301    0.0700
     30 H30       -16.8974    1.0712   57.7088 H       1  ZINC000864477301    0.0800
     31 H31       -18.3014   -0.9677   57.8509 H       1  ZINC000864477301    0.0700
     32 H32       -16.5932   -1.3863   57.5773 H       1  ZINC000864477301    0.0700
     33 H33       -16.0299   -4.6626   59.2068 H       1  ZINC000864477301    0.1400
     34 H34       -14.3255   -5.7245   57.7864 H       1  ZINC000864477301    0.1400
     35 H35       -12.4241   -4.4095   56.9465 H       1  ZINC000864477301    0.1500
     36 H36       -13.9795    0.1258   54.9880 H       1  ZINC000864477301    0.0700
     37 H37       -14.3498   -0.9353   56.3683 H       1  ZINC000864477301    0.0700
     38 H38       -13.4307    0.5677   56.6227 H       1  ZINC000864477301    0.0700
     39 H39        -9.8076   -1.4634   55.0070 H       1  ZINC000864477301    0.4100
     40 H40       -10.2707   -0.4584   51.6146 H       1  ZINC000864477301    0.0800
     41 H41        -8.6678   -1.1680   51.3058 H       1  ZINC000864477301    0.0700
     42 H42        -9.6300   -1.7158   52.6994 H       1  ZINC000864477301    0.0700
     43 H43        -7.5174    0.9687   51.3543 H       1  ZINC000864477301    0.1400
     44 H44        -6.4781    2.7071   52.7513 H       1  ZINC000864477301    0.1400
     45 H45        -7.1047    2.9262   55.1214 H       1  ZINC000864477301    0.1400
     46 H46       -13.9118   -0.9425   58.9319 H       1  ZINC000864477301    0.1400
@<TRIPOS>BOND
     1     1     2    1
     2     1    28    1
     3     1    29    1
     4     1    30    1
     5     2     3    1
     6     2    31    1
     7     2    32    1
     8     3     4    1
     9     4     5    2
    10     4     6    1
    11     6    27   ar
    12     6     7   ar
    13     7     8   ar
    14     7    33    1
    15     8     9   ar
    16     8    34    1
    17     9    10   ar
    18     9    35    1
    19    10    11    1
    20    10    27   ar
    21    11    12    2
    22    11    13    1
    23    13    14    1
    24    13    15    1
    25    13    16    1
    26    15    36    1
    27    15    37    1
    28    15    38    1
    29    16    17    2
    30    16    18   am
    31    18    19    1
    32    18    39    1
    33    19    25   ar
    34    19    20   ar
    35    20    21    1
    36    20    22   ar
    37    21    40    1
    38    21    41    1
    39    21    42    1
    40    22    23   ar
    41    22    43    1
    42    23    24   ar
    43    23    44    1
    44    24    25   ar
    45    24    45    1
    46    25    26    1
    47    27    46    1
@<TRIPOS>SUBSTRUCTURE
     1 ZINC000864477301        1 TEMP              0 ****  ****    0 ROOT


##########                                Name:    ZINC000179211660
##########                DOCK_Rotatable_Bonds:                   6
##########                         Heavy_Atoms:                  23
##########                    Molecular_Weight:             385.208
##########                DOCK_Rotatable_Bonds:                   6
##########                       Formal_Charge:        -1.78814e-07
##########                     HBond_Acceptors:                   6
##########                        HBond_Donors:                   1
##########                         Heavy_Atoms:                  23
##########                          Grid_Score:          -26.775658
##########                     Grid_vdw_energy:          -26.421671
##########                      Grid_es_energy:           -0.353986
##########           Internal_energy_repulsive:           16.136423

@<TRIPOS>MOLECULE
ZINC000179211660
 38 39 1 0 0
SMALL
USER_CHARGES


@<TRIPOS>ATOM
      1 C1         -1.8154    3.6891   51.3230 C.3     1  ZINC000179211660    0.0300
      2 O2         -2.0130    3.2411   49.9805 O.3     1  ZINC000179211660   -0.2700
      3 C3         -1.4879    4.0096   48.9902 C.ar    1  ZINC000179211660    0.1500
      4 C4         -0.7775    5.1586   49.3049 C.ar    1  ZINC000179211660   -0.2200
      5 C5         -0.2443    5.9378   48.2962 C.ar    1  ZINC000179211660   -0.0700
      6 C6         -0.4186    5.5734   46.9742 C.ar    1  ZINC000179211660   -0.1700
      7 C7         -1.1268    4.4286   46.6577 C.ar    1  ZINC000179211660   -0.0700
      8 C8         -1.6567    3.6429   47.6626 C.ar    1  ZINC000179211660   -0.1500
      9 C9         -2.4279    2.3951   47.3171 C.3     1  ZINC000179211660    0.1800
     10 N10        -1.5450    1.2307   47.4218 N.am    1  ZINC000179211660   -0.6200
     11 C11        -1.5764    0.3935   48.6236 C.3     1  ZINC000179211660    0.0700
     12 C12        -0.7040    0.9297   46.4126 C.2     1  ZINC000179211660    0.7000
     13 O13         0.0276   -0.0376   46.4989 O.2     1  ZINC000179211660   -0.5300
     14 N14        -0.6740    1.7009   45.3077 N.am    1  ZINC000179211660   -0.6800
     15 C15         0.2003    1.3881   44.2586 C.ar    1  ZINC000179211660    0.1900
     16 C16        -0.1515    0.4235   43.3253 C.ar    1  ZINC000179211660   -0.1400
     17 C17         0.7136    0.1167   42.2897 C.ar    1  ZINC000179211660    0.1500
     18 F18         0.3718   -0.8223   41.3805 F       1  ZINC000179211660   -0.1100
     19 C19         1.9294    0.7720   42.1842 C.ar    1  ZINC000179211660   -0.1300
     20 Br20        3.1090    0.3507   40.7674 Br      1  ZINC000179211660   -0.0100
     21 C21         2.2822    1.7345   43.1136 C.ar    1  ZINC000179211660   -0.0700
     22 C22         1.4194    2.0478   44.1475 C.ar    1  ZINC000179211660    0.0600
     23 F23         1.7644    2.9877   45.0546 F       1  ZINC000179211660   -0.1300
     24 H24        -2.2833    2.9868   52.0130 H       1  ZINC000179211660    0.1000
     25 H25        -0.7475    3.7480   51.5330 H       1  ZINC000179211660    0.0500
     26 H26        -2.2650    4.6744   51.4472 H       1  ZINC000179211660    0.0500
     27 H27        -0.6417    5.4441   50.3376 H       1  ZINC000179211660    0.1300
     28 H28         0.3088    6.8326   48.5409 H       1  ZINC000179211660    0.1200
     29 H29        -0.0014    6.1840   46.1871 H       1  ZINC000179211660    0.1200
     30 H30        -1.2620    4.1462   45.6241 H       1  ZINC000179211660    0.1300
     31 H31        -3.2631    2.2812   48.0081 H       1  ZINC000179211660    0.0900
     32 H32        -2.8073    2.4729   46.2982 H       1  ZINC000179211660    0.1000
     33 H33        -2.3095   -0.4025   48.4929 H       1  ZINC000179211660    0.0600
     34 H34        -0.5914   -0.0431   48.7881 H       1  ZINC000179211660    0.0600
     35 H35        -1.8519    1.0032   49.4842 H       1  ZINC000179211660    0.0800
     36 H36        -1.2576    2.4726   45.2389 H       1  ZINC000179211660    0.4100
     37 H37        -1.0993   -0.0875   43.4071 H       1  ZINC000179211660    0.1800
     38 H38         3.2307    2.2440   43.0291 H       1  ZINC000179211660    0.1600
@<TRIPOS>BOND
     1     1     2    1
     2     1    24    1
     3     1    25    1
     4     1    26    1
     5     2     3    1
     6     3     8   ar
     7     3     4   ar
     8     4     5   ar
     9     4    27    1
    10     5     6   ar
    11     5    28    1
    12     6     7   ar
    13     6    29    1
    14     7     8   ar
    15     7    30    1
    16     8     9    1
    17     9    10    1
    18     9    31    1
    19     9    32    1
    20    10    11    1
    21    10    12   am
    22    11    33    1
    23    11    34    1
    24    11    35    1
    25    12    13    2
    26    12    14   am
    27    14    15    1
    28    14    36    1
    29    15    22   ar
    30    15    16   ar
    31    16    17   ar
    32    16    37    1
    33    17    18    1
    34    17    19   ar
    35    19    20    1
    36    19    21   ar
    37    21    22   ar
    38    21    38    1
    39    22    23    1
@<TRIPOS>SUBSTRUCTURE
     1 ZINC000179211660        1 TEMP              0 ****  ****    0 ROOT


##########                                Name:    ZINC000186105981
##########                DOCK_Rotatable_Bonds:                   6
##########                         Heavy_Atoms:                  26
##########                    Molecular_Weight:             396.873
##########                DOCK_Rotatable_Bonds:                   6
##########                       Formal_Charge:          -0.0400003
##########                     HBond_Acceptors:                   9
##########                        HBond_Donors:                   1
##########                         Heavy_Atoms:                  26
##########                          Grid_Score:          -26.742172
##########                     Grid_vdw_energy:          -25.571865
##########                      Grid_es_energy:           -1.170306
##########           Internal_energy_repulsive:           20.758553

@<TRIPOS>MOLECULE
ZINC000186105981
 44 46 1 0 0
SMALL
USER_CHARGES


@<TRIPOS>ATOM
      1 C1         -6.8693    2.5742   64.7842 C.3     1  ZINC000186105981   -0.1400
      2 C2         -7.8012    1.8779   63.7905 C.3     1  ZINC000186105981   -0.1100
      3 C3         -7.1674    1.8961   62.3981 C.3     1  ZINC000186105981   -0.1600
      4 C4         -8.0249    0.4296   64.2300 C.3     1  ZINC000186105981    0.1600
      5 H5         -7.1108   -0.1430   64.0732 H       1  ZINC000186105981    0.1200
      6 C6         -9.1417   -0.1749   63.4186 C.2     1  ZINC000186105981    0.4900
      7 O7        -10.2963    0.0543   63.7107 O.2     1  ZINC000186105981   -0.4300
      8 N8         -8.8575   -0.9701   62.3682 N.am    1  ZINC000186105981   -0.6300
      9 C9         -9.8874   -1.5275   61.6199 C.2     1  ZINC000186105981    0.2400
     10 N10       -10.1583   -2.7973   61.5139 N.2     1  ZINC000186105981   -0.2600
     11 N11       -11.1352   -3.1301   60.7891 N.2     1  ZINC000186105981   -0.2000
     12 C12       -11.8030   -2.1789   60.1987 C.2     1  ZINC000186105981    0.0300
     13 C13       -12.9733   -2.3568   59.3136 C.ar    1  ZINC000186105981   -0.0500
     14 C14       -14.1907   -2.7974   59.8393 C.ar    1  ZINC000186105981    0.1300
     15 F15       -14.3022   -3.0625   61.1594 F       1  ZINC000186105981   -0.1200
     16 C16       -15.2807   -2.9608   59.0052 C.ar    1  ZINC000186105981   -0.1400
     17 C17       -15.1680   -2.6892   57.6539 C.ar    1  ZINC000186105981   -0.0600
     18 C18       -13.9653   -2.2530   57.1268 C.ar    1  ZINC000186105981   -0.1200
     19 C19       -12.8694   -2.0796   57.9486 C.ar    1  ZINC000186105981    0.0200
     20 Cl20      -11.3620   -1.5317   57.2845 Cl      1  ZINC000186105981   -0.0100
     21 S21       -11.0655   -0.6407   60.6505 S.3     1  ZINC000186105981    0.1200
     22 N22        -8.3821    0.3999   65.6505 N.am    1  ZINC000186105981   -0.6100
     23 C23        -7.7064   -0.4271   66.6572 C.3     1  ZINC000186105981    0.1000
     24 C24        -8.1040    0.1778   68.0219 C.3     1  ZINC000186105981   -0.1300
     25 C25        -9.4523    0.8558   67.6855 C.3     1  ZINC000186105981   -0.1600
     26 C26        -9.3670    1.1310   66.2004 C.2     1  ZINC000186105981    0.5200
     27 O27       -10.0872    1.8946   65.5929 O.2     1  ZINC000186105981   -0.5000
     28 H28        -6.7100    3.6060   64.4711 H       1  ZINC000186105981    0.0600
     29 H29        -7.3208    2.5612   65.7762 H       1  ZINC000186105981    0.0600
     30 H30        -5.9132    2.0515   64.8134 H       1  ZINC000186105981    0.0600
     31 H31        -8.7573    2.4006   63.7614 H       1  ZINC000186105981    0.0900
     32 H32        -6.2583    1.2947   62.4047 H       1  ZINC000186105981    0.0600
     33 H33        -7.8701    1.4846   61.6736 H       1  ZINC000186105981    0.0600
     34 H34        -6.9221    2.9222   62.1239 H       1  ZINC000186105981    0.0700
     35 H35        -7.9341   -1.1534   62.1345 H       1  ZINC000186105981    0.4200
     36 H36       -16.2224   -3.3015   59.4096 H       1  ZINC000186105981    0.1500
     37 H37       -16.0228   -2.8185   57.0067 H       1  ZINC000186105981    0.1500
     38 H38       -13.8847   -2.0433   56.0704 H       1  ZINC000186105981    0.1500
     39 H39        -8.0485   -1.4597   66.5883 H       1  ZINC000186105981    0.0700
     40 H40        -6.6258   -0.3772   66.5228 H       1  ZINC000186105981    0.0800
     41 H41        -8.2360   -0.6028   68.7711 H       1  ZINC000186105981    0.0900
     42 H42        -7.3694    0.9126   68.3516 H       1  ZINC000186105981    0.0800
     43 H43       -10.2823    0.1845   67.9059 H       1  ZINC000186105981    0.1100
     44 H44        -9.5582    1.7894   68.2382 H       1  ZINC000186105981    0.1000
@<TRIPOS>BOND
     1     1     2    1
     2     1    28    1
     3     1    29    1
     4     1    30    1
     5     2     3    1
     6     2     4    1
     7     2    31    1
     8     3    32    1
     9     3    33    1
    10     3    34    1
    11     4     5    1
    12     4     6    1
    13     4    22    1
    14     6     7    2
    15     6     8   am
    16     8     9    1
    17     8    35    1
    18     9    21    1
    19     9    10    2
    20    10    11    1
    21    11    12    2
    22    12    13    1
    23    12    21    1
    24    13    19   ar
    25    13    14   ar
    26    14    15    1
    27    14    16   ar
    28    16    17   ar
    29    16    36    1
    30    17    18   ar
    31    17    37    1
    32    18    19   ar
    33    18    38    1
    34    19    20    1
    35    22    26   am
    36    22    23    1
    37    23    24    1
    38    23    39    1
    39    23    40    1
    40    24    25    1
    41    24    41    1
    42    24    42    1
    43    25    26    1
    44    25    43    1
    45    25    44    1
    46    26    27    2
@<TRIPOS>SUBSTRUCTURE
     1 ZINC000186105981        1 TEMP              0 ****  ****    0 ROOT


##########                                Name:    ZINC001060733018
##########                DOCK_Rotatable_Bonds:                   7
##########                         Heavy_Atoms:                  24
##########                    Molecular_Weight:             342.429
##########                DOCK_Rotatable_Bonds:                   7
##########                       Formal_Charge:           0.0200001
##########                     HBond_Acceptors:                   6
##########                        HBond_Donors:                   2
##########                         Heavy_Atoms:                  24
##########                          Grid_Score:          -26.739616
##########                     Grid_vdw_energy:          -23.970289
##########                      Grid_es_energy:           -2.769327
##########           Internal_energy_repulsive:            6.046193

@<TRIPOS>MOLECULE
ZINC001060733018
 52 54 1 0 0
SMALL
USER_CHARGES


@<TRIPOS>ATOM
      1 O1         -8.1864    2.5716   56.7294 O.2     1  ZINC001060733018   -0.5000
      2 C2         -7.6113    2.1390   57.7056 C.2     1  ZINC001060733018    0.4700
      3 N3         -6.4554    2.7012   58.1110 N.am    1  ZINC001060733018   -0.7100
      4 C4         -5.8915    3.8323   57.3700 C.3     1  ZINC001060733018    0.1200
      5 C5         -5.0816    3.3105   56.1815 C.3     1  ZINC001060733018   -0.1000
      6 H6         -5.2253    2.2340   56.0885 H       1  ZINC001060733018    0.0800
      7 C7         -5.5537    4.0007   54.9002 C.3     1  ZINC001060733018   -0.1100
      8 C8         -4.7438    3.4788   53.7117 C.3     1  ZINC001060733018   -0.1300
      9 C9         -3.2600    3.7779   53.9350 C.3     1  ZINC001060733018    0.1400
     10 H10        -3.1163    4.8544   54.0281 H       1  ZINC001060733018    0.0900
     11 N11        -2.4845    3.2783   52.7970 N.am    1  ZINC001060733018   -0.7300
     12 C12        -2.3889    4.0138   51.6717 C.2     1  ZINC001060733018    0.5200
     13 O13        -2.9439    5.0899   51.6017 O.2     1  ZINC001060733018   -0.5400
     14 C14        -1.5927    3.4990   50.5004 C.3     1  ZINC001060733018   -0.1000
     15 H15        -1.0370    2.6108   50.8011 H       1  ZINC001060733018    0.1000
     16 C16        -0.6149    4.5788   50.0344 C.3     1  ZINC001060733018   -0.1100
     17 C17         0.2488    4.0389   48.8935 C.3     1  ZINC001060733018   -0.1200
     18 C18        -0.6428    3.6998   47.6950 C.3     1  ZINC001060733018   -0.0800
     19 C19        -1.7161    2.7030   48.1422 C.3     1  ZINC001060733018   -0.1300
     20 C20        -1.4064    1.2134   47.9966 C.3     1  ZINC001060733018   -0.1700
     21 C21        -2.4177    1.8807   47.0619 C.3     1  ZINC001060733018   -0.1700
     22 C22        -2.5435    3.1426   49.3536 C.3     1  ZINC001060733018   -0.0600
     23 C23        -2.7878    3.0878   55.2163 C.3     1  ZINC001060733018   -0.1200
     24 C24        -3.5978    3.6096   56.4049 C.3     1  ZINC001060733018   -0.1100
     25 C25        -8.1921    0.9767   58.4689 C.3     1  ZINC001060733018    0.2600
     26 F26        -7.1562    0.2274   59.0368 F       1  ZINC001060733018   -0.1700
     27 F27        -9.0303    1.4558   59.4814 F       1  ZINC001060733018   -0.1900
     28 H28        -5.9968    2.3570   58.8933 H       1  ZINC001060733018    0.4100
     29 H29        -6.6993    4.4684   57.0081 H       1  ZINC001060733018    0.0800
     30 H30        -5.2413    4.4095   58.0274 H       1  ZINC001060733018    0.0800
     31 H31        -6.6108    3.7876   54.7411 H       1  ZINC001060733018    0.0700
     32 H32        -5.4101    5.0771   54.9933 H       1  ZINC001060733018    0.0700
     33 H33        -5.0801    3.9705   52.7990 H       1  ZINC001060733018    0.0700
     34 H34        -4.8875    2.4024   53.6187 H       1  ZINC001060733018    0.0600
     35 H35        -2.0396    2.4181   52.8534 H       1  ZINC001060733018    0.4000
     36 H36        -1.1737    5.4475   49.6860 H       1  ZINC001060733018    0.0700
     37 H37         0.0264    4.8702   50.8662 H       1  ZINC001060733018    0.0700
     38 H38         0.9785    4.7942   48.6014 H       1  ZINC001060733018    0.0700
     39 H39         0.7689    3.1404   49.2253 H       1  ZINC001060733018    0.0700
     40 H40        -1.1192    4.6080   47.3258 H       1  ZINC001060733018    0.0700
     41 H41        -0.0384    3.2553   46.9044 H       1  ZINC001060733018    0.0700
     42 H42        -0.4383    0.9391   47.5774 H       1  ZINC001060733018    0.0900
     43 H43        -1.7952    0.5412   48.7616 H       1  ZINC001060733018    0.0900
     44 H44        -3.4718    1.6477   47.2120 H       1  ZINC001060733018    0.0900
     45 H45        -2.1152    2.0458   46.0278 H       1  ZINC001060733018    0.0900
     46 H46        -3.1994    2.3286   49.6626 H       1  ZINC001060733018    0.0700
     47 H47        -3.1412    4.0153   49.0903 H       1  ZINC001060733018    0.0800
     48 H48        -1.7308    3.3007   55.3754 H       1  ZINC001060733018    0.0700
     49 H49        -2.9315    2.0112   55.1233 H       1  ZINC001060733018    0.0700
     50 H50        -3.4540    4.6860   56.4979 H       1  ZINC001060733018    0.0700
     51 H51        -3.2615    3.1179   57.3177 H       1  ZINC001060733018    0.0700
     52 H52        -8.7663    0.3465   57.7898 H       1  ZINC001060733018    0.1400
@<TRIPOS>BOND
     1     1     2    2
     2     2     3   am
     3     2    25    1
     4     3     4    1
     5     3    28    1
     6     4     5    1
     7     4    29    1
     8     4    30    1
     9     5     6    1
    10     5    24    1
    11     5     7    1
    12     7     8    1
    13     7    31    1
    14     7    32    1
    15     8     9    1
    16     8    33    1
    17     8    34    1
    18     9    10    1
    19     9    11    1
    20     9    23    1
    21    11    12   am
    22    11    35    1
    23    12    13    2
    24    12    14    1
    25    14    15    1
    26    14    22    1
    27    14    16    1
    28    16    17    1
    29    16    36    1
    30    16    37    1
    31    17    18    1
    32    17    38    1
    33    17    39    1
    34    18    19    1
    35    18    40    1
    36    18    41    1
    37    19    21    1
    38    19    20    1
    39    19    22    1
    40    20    21    1
    41    20    42    1
    42    20    43    1
    43    21    44    1
    44    21    45    1
    45    22    46    1
    46    22    47    1
    47    23    24    1
    48    23    48    1
    49    23    49    1
    50    24    50    1
    51    24    51    1
    52    25    26    1
    53    25    27    1
    54    25    52    1
@<TRIPOS>SUBSTRUCTURE
     1 ZINC001060733018        1 TEMP              0 ****  ****    0 ROOT


##########                                Name:    ZINC000836820897
##########                DOCK_Rotatable_Bonds:                   5
##########                         Heavy_Atoms:                  22
##########                    Molecular_Weight:             330.355
##########                DOCK_Rotatable_Bonds:                   5
##########                       Formal_Charge:          -0.0200003
##########                     HBond_Acceptors:                   8
##########                        HBond_Donors:                   1
##########                         Heavy_Atoms:                  22
##########                          Grid_Score:          -26.725693
##########                     Grid_vdw_energy:          -25.481022
##########                      Grid_es_energy:           -1.244670
##########           Internal_energy_repulsive:            9.510383

@<TRIPOS>MOLECULE
ZINC000836820897
 38 40 1 0 0
SMALL
USER_CHARGES


@<TRIPOS>ATOM
      1 O1         -8.5320   -1.1788   66.3951 O.2     1  ZINC000836820897   -0.5200
      2 C2         -8.1874   -0.4749   65.4658 C.2     1  ZINC000836820897    0.5800
      3 C3         -9.0348   -0.3765   64.2597 C.ar    1  ZINC000836820897   -0.1600
      4 C4        -10.2819    0.2476   64.3287 C.ar    1  ZINC000836820897   -0.0100
      5 C5        -11.0684    0.3372   63.2001 C.ar    1  ZINC000836820897   -0.1700
      6 C6        -10.6233   -0.1912   61.9982 C.ar    1  ZINC000836820897    0.2200
      7 F7        -11.3980   -0.1007   60.8951 F       1  ZINC000836820897   -0.1100
      8 C8         -9.3852   -0.8117   61.9240 C.ar    1  ZINC000836820897   -0.7200
      9 S9         -8.8267   -1.4795   60.3921 S.o2    1  ZINC000836820897    2.7000
     10 O10        -7.9271   -2.5304   60.7167 O.2     1  ZINC000836820897   -0.9400
     11 O11        -9.9847   -1.6676   59.5903 O.2     1  ZINC000836820897   -0.9400
     12 N12        -7.9263   -0.3071   59.6456 N.am    1  ZINC000836820897   -1.0800
     13 C13        -8.5362    0.9816   59.3090 C.3     1  ZINC000836820897    0.0700
     14 C14        -7.7189    2.2445   59.5886 C.3     1  ZINC000836820897   -0.1800
     15 C15        -7.9258    1.7705   58.1488 C.3     1  ZINC000836820897   -0.1900
     16 C16        -8.5888   -0.9023   63.0451 C.ar    1  ZINC000836820897    0.0600
     17 N17        -7.0349    0.2201   65.5381 N.am    1  ZINC000836820897   -0.6200
     18 C18        -6.5068    1.1144   64.4974 C.3     1  ZINC000836820897    0.0900
     19 C19        -5.1851    1.7069   65.0299 C.3     1  ZINC000836820897   -0.1600
     20 C20        -5.3293    1.5524   66.5670 C.3     1  ZINC000836820897    0.0800
     21 H21        -5.9135    2.3702   66.9888 H       1  ZINC000836820897    0.1100
     22 F22        -4.0758    1.4657   67.1821 F       1  ZINC000836820897   -0.1900
     23 C23        -6.0980    0.2144   66.6763 C.3     1  ZINC000836820897    0.0800
     24 H24       -10.6298    0.6592   65.2646 H       1  ZINC000836820897    0.1500
     25 H25       -12.0334    0.8194   63.2524 H       1  ZINC000836820897    0.1600
     26 H26        -6.9951   -0.4738   59.4311 H       1  ZINC000836820897    0.4200
     27 H27        -9.6161    1.0404   59.4444 H       1  ZINC000836820897    0.1400
     28 H28        -8.2611    3.1343   59.9084 H       1  ZINC000836820897    0.1100
     29 H29        -6.7275    2.1163   60.0232 H       1  ZINC000836820897    0.1000
     30 H30        -7.0705    1.3306   57.6358 H       1  ZINC000836820897    0.1000
     31 H31        -8.6042    2.3484   57.5211 H       1  ZINC000836820897    0.1000
     32 H32        -7.6248   -1.3856   62.9862 H       1  ZINC000836820897    0.1600
     33 H33        -6.3186    0.5500   63.5841 H       1  ZINC000836820897    0.0800
     34 H34        -7.2194    1.9154   64.3004 H       1  ZINC000836820897    0.0800
     35 H35        -4.3315    1.1367   64.6634 H       1  ZINC000836820897    0.0900
     36 H36        -5.0950    2.7578   64.7548 H       1  ZINC000836820897    0.1000
     37 H37        -6.6421    0.1654   67.6196 H       1  ZINC000836820897    0.1000
     38 H38        -5.4099   -0.6265   66.5902 H       1  ZINC000836820897    0.0900
@<TRIPOS>BOND
     1     1     2    2
     2     2     3    1
     3     2    17   am
     4     3    16   ar
     5     3     4   ar
     6     4     5   ar
     7     4    24    1
     8     5     6   ar
     9     5    25    1
    10     6     7    1
    11     6     8   ar
    12     8     9    1
    13     8    16   ar
    14     9    10    2
    15     9    11    2
    16     9    12   am
    17    12    13    1
    18    12    26    1
    19    13    15    1
    20    13    14    1
    21    13    27    1
    22    14    15    1
    23    14    28    1
    24    14    29    1
    25    15    30    1
    26    15    31    1
    27    16    32    1
    28    17    23    1
    29    17    18    1
    30    18    19    1
    31    18    33    1
    32    18    34    1
    33    19    20    1
    34    19    35    1
    35    19    36    1
    36    20    21    1
    37    20    22    1
    38    20    23    1
    39    23    37    1
    40    23    38    1
@<TRIPOS>SUBSTRUCTURE
     1 ZINC000836820897        1 TEMP              0 ****  ****    0 ROOT


##########                                Name:    ZINC001231746020
##########                DOCK_Rotatable_Bonds:                   3
##########                         Heavy_Atoms:                  19
##########                    Molecular_Weight:             348.667
##########                DOCK_Rotatable_Bonds:                   3
##########                       Formal_Charge:          -0.0399997
##########                     HBond_Acceptors:                   4
##########                        HBond_Donors:                   2
##########                         Heavy_Atoms:                  19
##########                          Grid_Score:          -26.659155
##########                     Grid_vdw_energy:          -20.536665
##########                      Grid_es_energy:           -6.122490
##########           Internal_energy_repulsive:           11.007895

@<TRIPOS>MOLECULE
ZINC001231746020
 38 39 1 0 0
SMALL
USER_CHARGES


@<TRIPOS>ATOM
      1 C1         -8.4627    1.3662   58.6209 C.3     1  ZINC001231746020   -0.1500
      2 C2         -9.0617    0.3285   59.5723 C.3     1  ZINC001231746020   -0.0900
      3 H3         -9.7902    0.8093   60.2253 H       1  ZINC001231746020    0.0800
      4 C4         -9.7368   -0.7559   58.7757 C.3     1  ZINC001231746020   -0.1400
      5 C5        -10.9505   -1.3774   59.4898 C.3     1  ZINC001231746020   -0.0100
      6 N6        -10.7226   -1.6340   60.9280 N.4     1  ZINC001231746020   -0.3800
      7 H7        -10.8188   -0.7673   61.4356 H       1  ZINC001231746020    0.4100
      8 C8        -11.7334   -2.5846   61.4101 C.3     1  ZINC001231746020    0.0700
      9 C9        -13.1094   -2.0165   61.1757 C.ar    1  ZINC001231746020   -0.3100
     10 C10       -13.6348   -1.0937   62.0609 C.ar    1  ZINC001231746020   -0.0300
     11 C11       -14.8969   -0.5705   61.8481 C.ar    1  ZINC001231746020   -0.1600
     12 Cl12      -15.5559    0.5883   62.9601 Cl      1  ZINC001231746020   -0.0800
     13 C13       -15.6364   -0.9731   60.7449 C.ar    1  ZINC001231746020    0.3100
     14 O14       -16.8773   -0.4600   60.5329 O.3     1  ZINC001231746020   -0.6300
     15 C15       -15.1066   -1.9000   59.8583 C.ar    1  ZINC001231746020   -0.2100
     16 Br16      -16.1105   -2.4516   58.3536 Br      1  ZINC001231746020   -0.0600
     17 C17       -13.8419   -2.4151   60.0727 C.ar    1  ZINC001231746020   -0.0200
     18 C18        -9.4097   -2.1785   61.1766 C.3     1  ZINC001231746020   -0.0200
     19 C19        -8.4844   -1.0166   61.5729 C.3     1  ZINC001231746020   -0.1800
     20 C20        -7.9345   -0.3054   60.4254 C.3     1  ZINC001231746020    0.1000
     21 H21        -7.2672    0.4811   60.7779 H       1  ZINC001231746020    0.0700
     22 O22        -7.1929   -1.2212   59.6171 O.3     1  ZINC001231746020   -0.5600
     23 H23        -9.2556    1.8028   58.0136 H       1  ZINC001231746020    0.0600
     24 H24        -7.7313    0.8846   57.9719 H       1  ZINC001231746020    0.0700
     25 H25        -7.9744    2.1505   59.1994 H       1  ZINC001231746020    0.0600
     26 H26       -10.0678   -0.3364   57.8257 H       1  ZINC001231746020    0.1000
     27 H27        -9.0113   -1.5441   58.5744 H       1  ZINC001231746020    0.1000
     28 H28       -11.7997   -0.7018   59.3864 H       1  ZINC001231746020    0.1200
     29 H29       -11.1971   -2.3203   59.0020 H       1  ZINC001231746020    0.1200
     30 H30       -11.6326   -3.5267   60.8711 H       1  ZINC001231746020    0.1200
     31 H31       -11.5891   -2.7589   62.4763 H       1  ZINC001231746020    0.1200
     32 H32       -13.0587   -0.7809   62.9193 H       1  ZINC001231746020    0.1100
     33 H33       -13.4271   -3.1326   59.3802 H       1  ZINC001231746020    0.1100
     34 H34        -9.4590   -2.9042   61.9884 H       1  ZINC001231746020    0.1400
     35 H35        -9.0330   -2.6597   60.2741 H       1  ZINC001231746020    0.1300
     36 H36        -9.0485   -0.3122   62.1842 H       1  ZINC001231746020    0.0900
     37 H37        -7.6597   -1.4119   62.1660 H       1  ZINC001231746020    0.1100
     38 H38        -6.6123   -1.8086   60.1201 H       1  ZINC001231746020    0.3900
@<TRIPOS>BOND
     1     1     2    1
     2     1    23    1
     3     1    24    1
     4     1    25    1
     5     2     3    1
     6     2    20    1
     7     2     4    1
     8     4     5    1
     9     4    26    1
    10     4    27    1
    11     5     6    1
    12     5    28    1
    13     5    29    1
    14     6     7    1
    15     6     8    1
    16     6    18    1
    17     8     9    1
    18     8    30    1
    19     8    31    1
    20     9    17   ar
    21     9    10   ar
    22    10    11   ar
    23    10    32    1
    24    11    12    1
    25    11    13   ar
    26    13    14    1
    27    13    15   ar
    28    15    16    1
    29    15    17   ar
    30    17    33    1
    31    18    19    1
    32    18    34    1
    33    18    35    1
    34    19    20    1
    35    19    36    1
    36    19    37    1
    37    20    21    1
    38    20    22    1
    39    22    38    1
@<TRIPOS>SUBSTRUCTURE
     1 ZINC001231746020        1 TEMP              0 ****  ****    0 ROOT


##########                                Name:    ZINC001401207732
##########                DOCK_Rotatable_Bonds:                   8
##########                         Heavy_Atoms:                  23
##########                    Molecular_Weight:             337.446
##########                DOCK_Rotatable_Bonds:                   8
##########                       Formal_Charge:          -0.0199995
##########                     HBond_Acceptors:                   8
##########                        HBond_Donors:                   1
##########                         Heavy_Atoms:                  23
##########                          Grid_Score:          -26.656309
##########                     Grid_vdw_energy:          -26.280396
##########                      Grid_es_energy:           -0.375913
##########           Internal_energy_repulsive:          101.188087

@<TRIPOS>MOLECULE
ZINC001401207732
 46 47 1 0 0
SMALL
USER_CHARGES


@<TRIPOS>ATOM
      1 C1         -3.9923    3.9776   52.2080 C.3     1  ZINC001401207732   -0.0900
      2 C2         -2.5244    4.3190   52.2012 C.2     1  ZINC001401207732    0.1500
      3 C3         -1.6578    3.8277   51.2803 C.2     1  ZINC001401207732   -0.3000
      4 C4         -1.9898    2.9167   50.1797 C.2     1  ZINC001401207732    0.6100
      5 O5         -3.1361    2.5372   50.0288 O.2     1  ZINC001401207732   -0.5200
      6 N6         -1.0254    2.4999   49.3356 N.am    1  ZINC001401207732   -0.5900
      7 C7          0.3547    2.9568   49.5174 C.3     1  ZINC001401207732    0.0700
      8 C8         -1.3569    1.5900   48.2364 C.3     1  ZINC001401207732    0.1400
      9 H9         -0.4894    1.4736   47.5868 H       1  ZINC001401207732    0.1100
     10 C10        -1.7547    0.2265   48.8053 C.3     1  ZINC001401207732   -0.1600
     11 C11        -2.5233    2.1666   47.4312 C.3     1  ZINC001401207732    0.0500
     12 N12        -2.3525    1.8290   46.0118 N.3     1  ZINC001401207732   -0.6800
     13 C13        -1.5299    2.8352   45.3267 C.3     1  ZINC001401207732    0.1500
     14 C14        -0.3276    2.1667   44.7114 C.2     1  ZINC001401207732    0.1800
     15 N15         0.8774    2.6726   44.6039 N.2     1  ZINC001401207732   -0.4800
     16 C16         1.6141    1.7265   43.9946 C.2     1  ZINC001401207732    0.1800
     17 C17         3.0756    1.8246   43.6406 C.3     1  ZINC001401207732   -0.0100
     18 C18         3.4270    3.2795   43.3232 C.3     1  ZINC001401207732   -0.1500
     19 C19         3.9200    1.3421   44.8217 C.3     1  ZINC001401207732   -0.1500
     20 N20         0.8340    0.7125   43.7669 N.2     1  ZINC001401207732   -0.3800
     21 O21        -0.2843    0.9429   44.1762 O.3     1  ZINC001401207732    0.0900
     22 S22        -0.0603    4.4741   51.6480 S.3     1  ZINC001401207732    0.1800
     23 C23        -0.7045    5.3361   52.9763 C.2     1  ZINC001401207732    0.0100
     24 N24        -1.9755    5.1159   53.0832 N.2     1  ZINC001401207732   -0.4800
     25 H25        -4.1560    3.0895   52.8184 H       1  ZINC001401207732    0.0800
     26 H26        -4.5575    4.8125   52.6221 H       1  ZINC001401207732    0.0800
     27 H27        -4.3249    3.7839   51.1882 H       1  ZINC001401207732    0.1000
     28 H28         0.4816    3.9284   49.0396 H       1  ZINC001401207732    0.0600
     29 H29         0.5713    3.0444   50.5820 H       1  ZINC001401207732    0.0800
     30 H30         1.0379    2.2378   49.0655 H       1  ZINC001401207732    0.0900
     31 H31        -2.0014   -0.4504   47.9873 H       1  ZINC001401207732    0.0700
     32 H32        -0.9237   -0.1843   49.3788 H       1  ZINC001401207732    0.0700
     33 H33        -2.6222    0.3429   49.4548 H       1  ZINC001401207732    0.0600
     34 H34        -2.5440    3.2503   47.5470 H       1  ZINC001401207732    0.0800
     35 H35        -3.4599    1.7443   47.7950 H       1  ZINC001401207732    0.0500
     36 H36        -3.2461    1.7211   45.5558 H       1  ZINC001401207732    0.3600
     37 H37        -1.2004    3.5855   46.0454 H       1  ZINC001401207732    0.1100
     38 H38        -2.1189    3.3148   44.5449 H       1  ZINC001401207732    0.0800
     39 H39         3.2810    1.2029   42.7691 H       1  ZINC001401207732    0.1000
     40 H40         4.4841    3.3504   43.0672 H       1  ZINC001401207732    0.0700
     41 H41         2.8255    3.6233   42.4818 H       1  ZINC001401207732    0.0600
     42 H42         3.2218    3.9013   44.1947 H       1  ZINC001401207732    0.0600
     43 H43         3.6696    0.3056   45.0479 H       1  ZINC001401207732    0.0600
     44 H44         4.9770    1.4130   44.5657 H       1  ZINC001401207732    0.0700
     45 H45         3.7147    1.9638   45.6932 H       1  ZINC001401207732    0.0600
     46 H46        -0.1312    5.9706   53.6360 H       1  ZINC001401207732    0.2000
@<TRIPOS>BOND
     1     1     2    1
     2     1    25    1
     3     1    26    1
     4     1    27    1
     5     2    24    1
     6     2     3    2
     7     3     4    1
     8     3    22    1
     9     4     5    2
    10     4     6   am
    11     6     7    1
    12     6     8    1
    13     7    28    1
    14     7    29    1
    15     7    30    1
    16     8     9    1
    17     8    10    1
    18     8    11    1
    19    10    31    1
    20    10    32    1
    21    10    33    1
    22    11    12    1
    23    11    34    1
    24    11    35    1
    25    12    13    1
    26    12    36    1
    27    13    14    1
    28    13    37    1
    29    13    38    1
    30    14    21    1
    31    14    15    2
    32    15    16    1
    33    16    17    1
    34    16    20    2
    35    17    18    1
    36    17    19    1
    37    17    39    1
    38    18    40    1
    39    18    41    1
    40    18    42    1
    41    19    43    1
    42    19    44    1
    43    19    45    1
    44    20    21    1
    45    22    23    1
    46    23    24    2
    47    23    46    1
@<TRIPOS>SUBSTRUCTURE
     1 ZINC001401207732        1 TEMP              0 ****  ****    0 ROOT


##########                                Name:    ZINC000176150038
##########                DOCK_Rotatable_Bonds:                   4
##########                         Heavy_Atoms:                  23
##########                    Molecular_Weight:             333.712
##########                DOCK_Rotatable_Bonds:                   4
##########                       Formal_Charge:        -2.23517e-07
##########                     HBond_Acceptors:                  10
##########                        HBond_Donors:                   1
##########                         Heavy_Atoms:                  23
##########                          Grid_Score:          -26.654551
##########                     Grid_vdw_energy:          -26.742453
##########                      Grid_es_energy:            0.087902
##########           Internal_energy_repulsive:           15.974349

@<TRIPOS>MOLECULE
ZINC000176150038
 32 34 1 0 0
SMALL
USER_CHARGES


@<TRIPOS>ATOM
      1 C1          0.1642    0.5938   48.0560 C.3     1  ZINC000176150038   -0.0900
      2 C2         -0.8147    0.9806   46.9774 C.2     1  ZINC000176150038    0.2600
      3 N3         -1.0315    0.3368   45.8604 N.2     1  ZINC000176150038   -0.3300
      4 N4         -1.9296    0.9322   45.1617 N.2     1  ZINC000176150038   -0.0300
      5 N5         -2.3454    1.9868   45.7763 N.2     1  ZINC000176150038   -0.0700
      6 N6         -1.6350    2.0535   46.9877 N.pl3   1  ZINC000176150038   -0.3300
      7 C7         -1.7481    3.0298   47.9892 C.ar    1  ZINC000176150038    0.1400
      8 C8         -0.9627    4.1731   47.9360 C.ar    1  ZINC000176150038   -0.1000
      9 C9         -1.0729    5.1361   48.9213 C.ar    1  ZINC000176150038   -0.1100
     10 C10        -1.9659    4.9638   49.9630 C.ar    1  ZINC000176150038    0.1000
     11 F11        -2.0720    5.9070   50.9245 F       1  ZINC000176150038   -0.1200
     12 C12        -2.7555    3.8195   50.0209 C.ar    1  ZINC000176150038    0.1300
     13 N13        -3.6594    3.6445   51.0748 N.am    1  ZINC000176150038   -0.6500
     14 C14        -3.2035    3.4315   52.3250 C.2     1  ZINC000176150038    0.5700
     15 O15        -2.0077    3.3916   52.5373 O.2     1  ZINC000176150038   -0.4800
     16 C16        -4.1615    3.2460   53.4421 C.ar    1  ZINC000176150038    0.1400
     17 N17        -5.4733    3.2428   53.2155 N.ar    1  ZINC000176150038   -0.4800
     18 C18        -6.3261    3.0781   54.2034 C.ar    1  ZINC000176150038    0.3000
     19 N19        -5.9274    2.9104   55.4494 N.ar    1  ZINC000176150038   -0.4800
     20 C20        -4.6424    2.9009   55.7588 C.ar    1  ZINC000176150038    0.1700
     21 C21        -3.7025    3.0658   54.7491 C.ar    1  ZINC000176150038   -0.1000
     22 Cl22       -2.0031    3.0603   55.1040 Cl      1  ZINC000176150038    0.0100
     23 C23        -2.6491    2.8552   49.0297 C.ar    1  ZINC000176150038   -0.0800
     24 H24        -0.3280   -0.0606   48.7756 H       1  ZINC000176150038    0.1100
     25 H25         1.0098    0.0714   47.6089 H       1  ZINC000176150038    0.1100
     26 H26         0.5185    1.4909   48.5638 H       1  ZINC000176150038    0.0900
     27 H27        -0.2641    4.3101   47.1238 H       1  ZINC000176150038    0.1500
     28 H28        -0.4603    6.0245   48.8777 H       1  ZINC000176150038    0.1600
     29 H29        -4.6139    3.6764   50.9053 H       1  ZINC000176150038    0.4300
     30 H30        -7.3844    3.0806   53.9878 H       1  ZINC000176150038    0.2200
     31 H31        -4.3272    2.7629   56.7826 H       1  ZINC000176150038    0.1900
     32 H32        -3.2608    1.9661   49.0721 H       1  ZINC000176150038    0.1700
@<TRIPOS>BOND
     1     1     2    1
     2     1    24    1
     3     1    25    1
     4     1    26    1
     5     2     6    1
     6     2     3    2
     7     3     4    1
     8     4     5    2
     9     5     6    1
    10     6     7    1
    11     7    23   ar
    12     7     8   ar
    13     8     9   ar
    14     8    27    1
    15     9    10   ar
    16     9    28    1
    17    10    11    1
    18    10    12   ar
    19    12    13    1
    20    12    23   ar
    21    13    14   am
    22    13    29    1
    23    14    15    2
    24    14    16    1
    25    16    21   ar
    26    16    17   ar
    27    17    18   ar
    28    18    19   ar
    29    18    30    1
    30    19    20   ar
    31    20    21   ar
    32    20    31    1
    33    21    22    1
    34    23    32    1
@<TRIPOS>SUBSTRUCTURE
     1 ZINC000176150038        1 TEMP              0 ****  ****    0 ROOT


##########                                Name:    ZINC000840649129
##########                DOCK_Rotatable_Bonds:                   8
##########                         Heavy_Atoms:                  26
##########                    Molecular_Weight:             376.839
##########                DOCK_Rotatable_Bonds:                   8
##########                       Formal_Charge:          -0.0199998
##########                     HBond_Acceptors:                   7
##########                        HBond_Donors:                   3
##########                         Heavy_Atoms:                  26
##########                          Grid_Score:          -26.624390
##########                     Grid_vdw_energy:          -26.269382
##########                      Grid_es_energy:           -0.355007
##########           Internal_energy_repulsive:           17.387794

@<TRIPOS>MOLECULE
ZINC000840649129
 47 48 1 0 0
SMALL
USER_CHARGES


@<TRIPOS>ATOM
      1 C1         -1.9966    1.9360   45.6505 C.3     1  ZINC000840649129    0.0200
      2 O2         -2.1803    1.3808   46.9544 O.3     1  ZINC000840649129   -0.2900
      3 C3         -1.1596    0.6418   47.4589 C.ar    1  ZINC000840649129    0.1400
      4 C4         -1.2497   -0.7415   47.4841 C.ar    1  ZINC000840649129   -0.1700
      5 C5         -0.2129   -1.4949   47.9968 C.ar    1  ZINC000840649129   -0.1200
      6 C6          0.9293   -0.8739   48.4912 C.ar    1  ZINC000840649129    0.1700
      7 N7          1.9754   -1.6462   49.0089 N.pl3   1  ZINC000840649129   -0.8800
      8 C8          1.0340    0.5062   48.4718 C.ar    1  ZINC000840649129   -0.1000
      9 C9         -0.0097    1.2750   47.9504 C.ar    1  ZINC000840649129   -0.1200
     10 C10         0.0941    2.7453   47.9256 C.2     1  ZINC000840649129    0.5100
     11 O11         0.8841    3.2860   47.1771 O.2     1  ZINC000840649129   -0.4800
     12 O12        -0.6871    3.4895   48.7328 O.3     1  ZINC000840649129   -0.3200
     13 C13        -0.6024    3.2259   50.1582 C.3     1  ZINC000840649129    0.0800
     14 H14        -0.2862    2.1952   50.3190 H       1  ZINC000840649129    0.1200
     15 C15        -1.9535    3.4413   50.7900 C.2     1  ZINC000840649129    0.5200
     16 O16        -2.9540    3.4184   50.1047 O.2     1  ZINC000840649129   -0.4900
     17 N17        -2.0501    3.6592   52.1164 N.am    1  ZINC000840649129   -0.6600
     18 C18        -3.3051    3.8592   52.7033 C.ar    1  ZINC000840649129    0.1600
     19 C19        -4.2902    2.8882   52.5868 C.ar    1  ZINC000840649129   -0.1400
     20 C20        -5.5278    3.0882   53.1675 C.ar    1  ZINC000840649129   -0.0900
     21 C21        -5.7863    4.2540   53.8643 C.ar    1  ZINC000840649129   -0.1300
     22 C22        -4.8077    5.2242   53.9823 C.ar    1  ZINC000840649129   -0.0900
     23 C23        -3.5659    5.0281   53.4089 C.ar    1  ZINC000840649129   -0.0700
     24 Cl24       -2.3376    6.2459   53.5577 Cl      1  ZINC000840649129   -0.0700
     25 C25         0.4147    4.1764   50.7931 C.3     1  ZINC000840649129   -0.1100
     26 C26         1.8083    3.5481   50.7299 C.3     1  ZINC000840649129   -0.1600
     27 C27         0.4183    5.5028   50.0305 C.3     1  ZINC000840649129   -0.1500
     28 H28        -2.8845    2.5017   45.3680 H       1  ZINC000840649129    0.1000
     29 H29        -1.1306    2.5979   45.6561 H       1  ZINC000840649129    0.0600
     30 H30        -1.8347    1.1318   44.9327 H       1  ZINC000840649129    0.0600
     31 H31        -2.1334   -1.2307   47.1021 H       1  ZINC000840649129    0.1400
     32 H32        -0.2891   -2.5722   48.0144 H       1  ZINC000840649129    0.1300
     33 H33         1.9034   -2.6135   49.0228 H       1  ZINC000840649129    0.4000
     34 H34         2.7724   -1.2143   49.3540 H       1  ZINC000840649129    0.4000
     35 H35         1.9215    0.9873   48.8556 H       1  ZINC000840649129    0.1400
     36 H36        -1.2500    3.6774   52.6645 H       1  ZINC000840649129    0.4200
     37 H37        -4.0895    1.9773   52.0425 H       1  ZINC000840649129    0.1700
     38 H38        -6.2945    2.3330   53.0767 H       1  ZINC000840649129    0.1300
     39 H39        -6.7547    4.4075   54.3171 H       1  ZINC000840649129    0.1300
     40 H40        -5.0128    6.1340   54.5270 H       1  ZINC000840649129    0.1400
     41 H41         0.1440    4.3561   51.8335 H       1  ZINC000840649129    0.0900
     42 H42         2.0274    3.2521   49.7039 H       1  ZINC000840649129    0.0700
     43 H43         2.5495    4.2737   51.0648 H       1  ZINC000840649129    0.0800
     44 H44         1.8410    2.6708   51.3759 H       1  ZINC000840649129    0.0600
     45 H45        -0.5746    5.9505   50.0755 H       1  ZINC000840649129    0.0500
     46 H46         1.1429    6.1799   50.4827 H       1  ZINC000840649129    0.0600
     47 H47         0.6890    5.3231   48.9900 H       1  ZINC000840649129    0.0700
@<TRIPOS>BOND
     1     1     2    1
     2     1    28    1
     3     1    29    1
     4     1    30    1
     5     2     3    1
     6     3     9   ar
     7     3     4   ar
     8     4     5   ar
     9     4    31    1
    10     5     6   ar
    11     5    32    1
    12     6     7    1
    13     6     8   ar
    14     7    33    1
    15     7    34    1
    16     8     9   ar
    17     8    35    1
    18     9    10    1
    19    10    11    2
    20    10    12    1
    21    12    13    1
    22    13    14    1
    23    13    15    1
    24    13    25    1
    25    15    16    2
    26    15    17   am
    27    17    18    1
    28    17    36    1
    29    18    23   ar
    30    18    19   ar
    31    19    20   ar
    32    19    37    1
    33    20    21   ar
    34    20    38    1
    35    21    22   ar
    36    21    39    1
    37    22    23   ar
    38    22    40    1
    39    23    24    1
    40    25    26    1
    41    25    27    1
    42    25    41    1
    43    26    42    1
    44    26    43    1
    45    26    44    1
    46    27    45    1
    47    27    46    1
    48    27    47    1
@<TRIPOS>SUBSTRUCTURE
     1 ZINC000840649129        1 TEMP              0 ****  ****    0 ROOT


##########                                Name:    ZINC000002873519
##########                DOCK_Rotatable_Bonds:                   5
##########                         Heavy_Atoms:                  25
##########                    Molecular_Weight:             375.207
##########                DOCK_Rotatable_Bonds:                   5
##########                       Formal_Charge:               -0.02
##########                     HBond_Acceptors:                   6
##########                        HBond_Donors:                   0
##########                         Heavy_Atoms:                  25
##########                          Grid_Score:          -26.516611
##########                     Grid_vdw_energy:          -26.498281
##########                      Grid_es_energy:           -0.018329
##########           Internal_energy_repulsive:            9.306129

@<TRIPOS>MOLECULE
ZINC000002873519
 37 39 1 0 0
SMALL
USER_CHARGES


@<TRIPOS>ATOM
      1 C1         -0.3765    5.4839   45.2937 C.3     1  ZINC000002873519   -0.1500
      2 C2         -0.3783    3.9918   45.5054 C.2     1  ZINC000002873519    0.4500
      3 O3          0.5591    3.3274   45.1315 O.2     1  ZINC000002873519   -0.4800
      4 O4         -1.4216    3.4007   46.1100 O.3     1  ZINC000002873519   -0.2900
      5 C5         -1.2232    2.1498   46.5979 C.ar    1  ZINC000002873519    0.1200
      6 C6         -1.2501    1.0583   45.7460 C.ar    1  ZINC000002873519   -0.1100
      7 C7         -1.0476   -0.2154   46.2429 C.ar    1  ZINC000002873519   -0.0800
      8 C8         -0.8160   -0.4140   47.5958 C.ar    1  ZINC000002873519   -0.0400
      9 Cl9        -0.5632   -2.0209   48.2021 Cl      1  ZINC000002873519   -0.0500
     10 C10        -0.7851    0.6582   48.4612 C.ar    1  ZINC000002873519   -0.0800
     11 C11        -0.9835    1.9562   47.9707 C.ar    1  ZINC000002873519   -0.0700
     12 C12        -0.9521    3.1011   48.8818 C.2     1  ZINC000002873519    0.0400
     13 C13        -1.9481    3.2602   49.8254 C.2     1  ZINC000002873519   -0.1900
     14 C14        -2.0902    4.3413   50.8159 C.2     1  ZINC000002873519   -0.2000
     15 C15        -3.2120    4.0730   51.5168 C.2     1  ZINC000002873519    0.1200
     16 C16        -3.7278    4.9120   52.6168 C.ar    1  ZINC000002873519   -0.0400
     17 C17        -3.0488    6.0740   52.9904 C.ar    1  ZINC000002873519   -0.0800
     18 C18        -3.5358    6.8532   54.0186 C.ar    1  ZINC000002873519   -0.1100
     19 C19        -4.6954    6.4856   54.6806 C.ar    1  ZINC000002873519   -0.0200
     20 Cl20       -5.3019    7.4720   55.9740 Cl      1  ZINC000002873519   -0.0600
     21 C21        -5.3734    5.3347   54.3150 C.ar    1  ZINC000002873519   -0.1100
     22 C22        -4.9003    4.5501   53.2843 C.ar    1  ZINC000002873519   -0.0800
     23 O23        -3.8011    2.9407   51.0830 O.3     1  ZINC000002873519   -0.2600
     24 C24        -3.1147    2.3897   50.0659 C.2     1  ZINC000002873519    0.5200
     25 O25        -3.3961    1.3685   49.4672 O.2     1  ZINC000002873519   -0.4200
     26 H26        -0.8315    5.7146   44.3304 H       1  ZINC000002873519    0.1100
     27 H27        -0.9461    5.9644   46.0891 H       1  ZINC000002873519    0.1000
     28 H28         0.6495    5.8518   45.3083 H       1  ZINC000002873519    0.1100
     29 H29        -1.4300    1.2027   44.6909 H       1  ZINC000002873519    0.1500
     30 H30        -1.0702   -1.0621   45.5729 H       1  ZINC000002873519    0.1500
     31 H31        -0.6049    0.4991   49.5141 H       1  ZINC000002873519    0.1500
     32 H32        -0.1502    3.8215   48.8163 H       1  ZINC000002873519    0.1500
     33 H33        -1.4272    5.1824   50.9545 H       1  ZINC000002873519    0.1700
     34 H34        -2.1439    6.3613   52.4753 H       1  ZINC000002873519    0.1400
     35 H35        -3.0116    7.7520   54.3085 H       1  ZINC000002873519    0.1400
     36 H36        -6.2770    5.0533   54.8354 H       1  ZINC000002873519    0.1400
     37 H37        -5.4299    3.6528   53.0001 H       1  ZINC000002873519    0.1400
@<TRIPOS>BOND
     1     1     2    1
     2     1    26    1
     3     1    27    1
     4     1    28    1
     5     2     3    2
     6     2     4    1
     7     4     5    1
     8     5    11   ar
     9     5     6   ar
    10     6     7   ar
    11     6    29    1
    12     7     8   ar
    13     7    30    1
    14     8     9    1
    15     8    10   ar
    16    10    11   ar
    17    10    31    1
    18    11    12    1
    19    12    13    2
    20    12    32    1
    21    13    24    1
    22    13    14    1
    23    14    15    2
    24    14    33    1
    25    15    16    1
    26    15    23    1
    27    16    22   ar
    28    16    17   ar
    29    17    18   ar
    30    17    34    1
    31    18    19   ar
    32    18    35    1
    33    19    20    1
    34    19    21   ar
    35    21    22   ar
    36    21    36    1
    37    22    37    1
    38    23    24    1
    39    24    25    2
@<TRIPOS>SUBSTRUCTURE
     1 ZINC000002873519        1 TEMP              0 ****  ****    0 ROOT


##########                                Name:    ZINC000518234532
##########                DOCK_Rotatable_Bonds:                   5
##########                         Heavy_Atoms:                  25
##########                    Molecular_Weight:             408.267
##########                DOCK_Rotatable_Bonds:                   5
##########                       Formal_Charge:         -0.00999981
##########                     HBond_Acceptors:                   5
##########                        HBond_Donors:                   1
##########                         Heavy_Atoms:                  25
##########                          Grid_Score:          -26.486588
##########                     Grid_vdw_energy:          -25.848969
##########                      Grid_es_energy:           -0.637618
##########           Internal_energy_repulsive:           21.034960

@<TRIPOS>MOLECULE
ZINC000518234532
 44 46 1 0 0
SMALL
USER_CHARGES


@<TRIPOS>ATOM
      1 C1        -10.8586    1.5107   57.8402 C.3     1  ZINC000518234532   -0.1600
      2 C2        -10.1630    0.1720   58.0949 C.3     1  ZINC000518234532    0.1800
      3 H3         -9.1654    0.1916   57.6560 H       1  ZINC000518234532    0.1100
      4 N4        -10.0572   -0.0567   59.5381 N.am    1  ZINC000518234532   -0.7300
      5 C5         -8.8498   -0.2611   60.1012 C.2     1  ZINC000518234532    0.5200
      6 O6         -7.8509   -0.2543   59.4134 O.2     1  ZINC000518234532   -0.5200
      7 C7         -8.7412   -0.4982   61.5854 C.3     1  ZINC000518234532   -0.0700
      8 H8         -8.3608   -1.5036   61.7660 H       1  ZINC000518234532    0.1100
      9 C9        -10.1221   -0.3523   62.2277 C.3     1  ZINC000518234532   -0.1400
     10 C10        -7.7981    0.5112   62.1876 C.ar    1  ZINC000518234532   -0.1000
     11 C11        -6.8857    0.1178   63.1480 C.ar    1  ZINC000518234532   -0.0600
     12 C12        -6.0203    1.0437   63.7007 C.ar    1  ZINC000518234532   -0.1300
     13 C13        -6.0670    2.3639   63.2938 C.ar    1  ZINC000518234532   -0.0900
     14 C14        -6.9791    2.7599   62.3337 C.ar    1  ZINC000518234532   -0.1600
     15 C15        -7.8416    1.8324   61.7748 C.ar    1  ZINC000518234532    0.1000
     16 F16        -8.7335    2.2183   60.8363 F       1  ZINC000518234532   -0.1400
     17 C17       -10.9659   -0.9386   57.4679 C.ar    1  ZINC000518234532   -0.0600
     18 C18       -11.8201   -1.6965   58.2460 C.ar    1  ZINC000518234532   -0.1100
     19 C19       -12.5609   -2.7187   57.6716 C.ar    1  ZINC000518234532    0.0800
     20 C20       -12.4438   -2.9774   56.3112 C.ar    1  ZINC000518234532    0.0600
     21 C21       -11.5840   -2.2142   55.5354 C.ar    1  ZINC000518234532   -0.0800
     22 C22       -10.8510   -1.1940   56.1132 C.ar    1  ZINC000518234532   -0.0800
     23 Br23       -9.6805   -0.1545   55.0524 Br      1  ZINC000518234532   -0.0300
     24 O24       -13.1675   -3.9706   55.7263 O.3     1  ZINC000518234532   -0.3000
     25 C25       -13.7354   -4.9531   56.5993 C.3     1  ZINC000518234532    0.0200
     26 C26       -14.3983   -4.2245   57.7761 C.3     1  ZINC000518234532    0.0200
     27 O27       -13.3949   -3.4592   58.4522 O.3     1  ZINC000518234532   -0.3000
     28 H28       -10.2779    2.3140   58.2938 H       1  ZINC000518234532    0.0700
     29 H29       -10.9374    1.6808   56.7666 H       1  ZINC000518234532    0.0700
     30 H30       -11.8562    1.4911   58.2791 H       1  ZINC000518234532    0.0600
     31 H31       -10.8560   -0.0609   60.0883 H       1  ZINC000518234532    0.4000
     32 H32       -10.8044   -1.0824   61.7922 H       1  ZINC000518234532    0.0700
     33 H33       -10.0436   -0.5237   63.3013 H       1  ZINC000518234532    0.0700
     34 H34       -10.5025    0.6531   62.0472 H       1  ZINC000518234532    0.0700
     35 H35        -6.8488   -0.9133   63.4672 H       1  ZINC000518234532    0.1300
     36 H36        -5.3076    0.7353   64.4511 H       1  ZINC000518234532    0.1300
     37 H37        -5.3908    3.0864   63.7265 H       1  ZINC000518234532    0.1300
     38 H38        -7.0158    3.7916   62.0164 H       1  ZINC000518234532    0.1400
     39 H39       -11.9107   -1.4929   59.3028 H       1  ZINC000518234532    0.1400
     40 H40       -11.4895   -2.4146   54.4784 H       1  ZINC000518234532    0.1500
     41 H41       -14.4820   -5.5362   56.0602 H       1  ZINC000518234532    0.1300
     42 H42       -12.9508   -5.6126   56.9702 H       1  ZINC000518234532    0.0800
     43 H43       -15.1789   -3.5605   57.4047 H       1  ZINC000518234532    0.0800
     44 H44       -14.8304   -4.9525   58.4627 H       1  ZINC000518234532    0.1300
@<TRIPOS>BOND
     1     1     2    1
     2     1    28    1
     3     1    29    1
     4     1    30    1
     5     2     3    1
     6     2     4    1
     7     2    17    1
     8     4     5   am
     9     4    31    1
    10     5     6    2
    11     5     7    1
    12     7     8    1
    13     7     9    1
    14     7    10    1
    15     9    32    1
    16     9    33    1
    17     9    34    1
    18    10    15   ar
    19    10    11   ar
    20    11    12   ar
    21    11    35    1
    22    12    13   ar
    23    12    36    1
    24    13    14   ar
    25    13    37    1
    26    14    15   ar
    27    14    38    1
    28    15    16    1
    29    17    22   ar
    30    17    18   ar
    31    18    19   ar
    32    18    39    1
    33    19    27    1
    34    19    20   ar
    35    20    21   ar
    36    20    24    1
    37    21    22   ar
    38    21    40    1
    39    22    23    1
    40    24    25    1
    41    25    26    1
    42    25    41    1
    43    25    42    1
    44    26    27    1
    45    26    43    1
    46    26    44    1
@<TRIPOS>SUBSTRUCTURE
     1 ZINC000518234532        1 TEMP              0 ****  ****    0 ROOT


##########                                Name:    ZINC001220212140
##########                DOCK_Rotatable_Bonds:                   6
##########                         Heavy_Atoms:                  28
##########                    Molecular_Weight:             379.459
##########                DOCK_Rotatable_Bonds:                   6
##########                       Formal_Charge:         -0.00999925
##########                     HBond_Acceptors:                   6
##########                        HBond_Donors:                   1
##########                         Heavy_Atoms:                  28
##########                          Grid_Score:          -26.433874
##########                     Grid_vdw_energy:          -23.742615
##########                      Grid_es_energy:           -2.691260
##########           Internal_energy_repulsive:          172.129898

@<TRIPOS>MOLECULE
ZINC001220212140
 53 56 1 0 0
SMALL
USER_CHARGES


@<TRIPOS>ATOM
      1 C1         -4.8009    4.0527   57.2032 C.3     1  ZINC001220212140   -0.1700
      2 C2         -3.6896    4.9989   56.7440 C.3     1  ZINC001220212140    0.0800
      3 H3         -3.2946    5.5659   57.5869 H       1  ZINC001220212140    0.1200
      4 C4         -2.5609    4.2148   56.0339 C.3     1  ZINC001220212140   -0.1100
      5 C5         -2.9838    4.3036   54.5802 C.ar    1  ZINC001220212140   -0.1500
      6 C6         -2.5912    3.6057   53.4605 C.ar    1  ZINC001220212140   -0.0700
      7 C7         -3.1620    3.8959   52.2273 C.ar    1  ZINC001220212140    0.1400
      8 N8         -2.7667    3.1885   51.0838 N.am    1  ZINC001220212140   -0.6800
      9 C9         -2.0062    3.7906   50.1482 C.2     1  ZINC001220212140    0.7200
     10 O10        -1.6629    4.9477   50.2962 O.2     1  ZINC001220212140   -0.5700
     11 N11        -1.6260    3.1104   49.0486 N.am    1  ZINC001220212140   -0.6300
     12 C12        -1.9682    1.7132   48.7444 C.3     1  ZINC001220212140    0.0900
     13 C13        -1.3407    1.3754   47.3757 C.3     1  ZINC001220212140   -0.1100
     14 C14        -1.1582    2.7711   46.7230 C.3     1  ZINC001220212140   -0.1300
     15 H15        -2.0850    3.1103   46.2603 H       1  ZINC001220212140    0.1200
     16 C16        -0.0320    2.7562   45.7217 C.2     1  ZINC001220212140    0.5300
     17 O17         0.6379    1.7554   45.5775 O.2     1  ZINC001220212140   -0.5100
     18 N18         0.2308    3.8548   44.9867 N.am    1  ZINC001220212140   -0.5700
     19 C19        -0.5783    5.0636   45.1610 C.3     1  ZINC001220212140    0.0700
     20 C20         1.2765    3.8409   44.0571 C.ar    1  ZINC001220212140    0.1400
     21 C21         1.5516    4.9736   43.3021 C.ar    1  ZINC001220212140   -0.1100
     22 C22         2.5845    4.9566   42.3854 C.ar    1  ZINC001220212140   -0.1100
     23 C23         3.3441    3.8132   42.2186 C.ar    1  ZINC001220212140   -0.1200
     24 C24         3.0724    2.6836   42.9684 C.ar    1  ZINC001220212140   -0.1100
     25 C25         2.0452    2.6962   43.8915 C.ar    1  ZINC001220212140   -0.1200
     26 C26        -0.8035    3.6458   47.9486 C.3     1  ZINC001220212140    0.1400
     27 C27        -4.1264    4.8900   52.1346 C.ar    1  ZINC001220212140   -0.1100
     28 C28        -4.5145    5.5892   53.2581 C.ar    1  ZINC001220212140   -0.1200
     29 C29        -3.9430    5.3049   54.4956 C.ar    1  ZINC001220212140    0.0900
     30 O30        -4.1658    5.8820   55.7144 O.3     1  ZINC001220212140   -0.3000
     31 H31        -5.1898    3.5052   56.3446 H       1  ZINC001220212140    0.0600
     32 H32        -4.4001    3.3482   57.9320 H       1  ZINC001220212140    0.0800
     33 H33        -5.6043    4.6304   57.6600 H       1  ZINC001220212140    0.0700
     34 H34        -1.5953    4.6962   56.1888 H       1  ZINC001220212140    0.0900
     35 H35        -2.5359    3.1781   56.3696 H       1  ZINC001220212140    0.0900
     36 H36        -1.8404    2.8335   53.5404 H       1  ZINC001220212140    0.1400
     37 H37        -3.0404    2.2654   50.9658 H       1  ZINC001220212140    0.4100
     38 H38        -1.5596    1.0559   49.5120 H       1  ZINC001220212140    0.0700
     39 H39        -3.0511    1.5994   48.6941 H       1  ZINC001220212140    0.0700
     40 H40        -0.3779    0.8809   47.5042 H       1  ZINC001220212140    0.1000
     41 H41        -2.0164    0.7582   46.7834 H       1  ZINC001220212140    0.0900
     42 H42        -0.1299    5.6933   45.9294 H       1  ZINC001220212140    0.0700
     43 H43        -0.6193    5.6122   44.2201 H       1  ZINC001220212140    0.0800
     44 H44        -1.5877    4.7847   45.4633 H       1  ZINC001220212140    0.0800
     45 H45         0.9582    5.8667   43.4315 H       1  ZINC001220212140    0.1200
     46 H46         2.7988    5.8372   41.7980 H       1  ZINC001220212140    0.1300
     47 H47         4.1509    3.8024   41.5007 H       1  ZINC001220212140    0.1300
     48 H48         3.6671    1.7920   42.8352 H       1  ZINC001220212140    0.1300
     49 H49         1.8335    1.8137   44.4768 H       1  ZINC001220212140    0.1200
     50 H50        -1.0544    4.6888   47.7556 H       1  ZINC001220212140    0.0900
     51 H51         0.2547    3.5480   48.1909 H       1  ZINC001220212140    0.0700
     52 H52        -4.5743    5.1170   51.1784 H       1  ZINC001220212140    0.1300
     53 H53        -5.2655    6.3613   53.1777 H       1  ZINC001220212140    0.1300
@<TRIPOS>BOND
     1     1     2    1
     2     1    31    1
     3     1    32    1
     4     1    33    1
     5     2     3    1
     6     2    30    1
     7     2     4    1
     8     4     5    1
     9     4    34    1
    10     4    35    1
    11     5    29   ar
    12     5     6   ar
    13     6     7   ar
    14     6    36    1
    15     7     8    1
    16     7    27   ar
    17     8     9   am
    18     8    37    1
    19     9    10    2
    20     9    11   am
    21    11    26    1
    22    11    12    1
    23    12    13    1
    24    12    38    1
    25    12    39    1
    26    13    14    1
    27    13    40    1
    28    13    41    1
    29    14    15    1
    30    14    16    1
    31    14    26    1
    32    16    17    2
    33    16    18   am
    34    18    19    1
    35    18    20    1
    36    19    42    1
    37    19    43    1
    38    19    44    1
    39    20    25   ar
    40    20    21   ar
    41    21    22   ar
    42    21    45    1
    43    22    23   ar
    44    22    46    1
    45    23    24   ar
    46    23    47    1
    47    24    25   ar
    48    24    48    1
    49    25    49    1
    50    26    50    1
    51    26    51    1
    52    27    28   ar
    53    27    52    1
    54    28    29   ar
    55    28    53    1
    56    29    30    1
@<TRIPOS>SUBSTRUCTURE
     1 ZINC001220212140        1 TEMP              0 ****  ****    0 ROOT


##########                                Name:    ZINC000656860804
##########                DOCK_Rotatable_Bonds:                   2
##########                         Heavy_Atoms:                  19
##########                    Molecular_Weight:             388.068
##########                DOCK_Rotatable_Bonds:                   2
##########                       Formal_Charge:          8.9407e-08
##########                     HBond_Acceptors:                   8
##########                        HBond_Donors:                   1
##########                         Heavy_Atoms:                  19
##########                          Grid_Score:          -26.429234
##########                     Grid_vdw_energy:          -25.953659
##########                      Grid_es_energy:           -0.475574
##########           Internal_energy_repulsive:           17.589115

@<TRIPOS>MOLECULE
ZINC000656860804
 28 29 1 0 0
SMALL
USER_CHARGES


@<TRIPOS>ATOM
      1 O1         -0.9079   -1.5894   48.7967 O.2     1  ZINC000656860804   -0.5400
      2 C2         -0.8282   -0.4127   48.5142 C.2     1  ZINC000656860804    0.5100
      3 C3         -0.2591   -0.0334   47.1742 C.3     1  ZINC000656860804    0.1100
      4 N4         -0.5371    1.3887   46.9241 N.am    1  ZINC000656860804   -1.0000
      5 S5         -1.0482    1.9188   45.4408 S.o2    1  ZINC000656860804    2.6900
      6 O6         -2.1872    1.1379   45.1062 O.2     1  ZINC000656860804   -0.9200
      7 O7         -1.0713    3.3381   45.5080 O.2     1  ZINC000656860804   -0.9300
      8 C8          0.2045    1.4964   44.2759 C.ar    1  ZINC000656860804   -0.6500
      9 C9         -0.0820    0.6316   43.2368 C.ar    1  ZINC000656860804    0.0100
     10 C10         0.9012    0.2995   42.3219 C.ar    1  ZINC000656860804   -0.0400
     11 Cl11        0.5411   -0.7865   41.0162 Cl      1  ZINC000656860804   -0.0200
     12 C12         2.1722    0.8339   42.4475 C.ar    1  ZINC000656860804    0.0200
     13 Cl13        3.4064    0.4183   41.2995 Cl      1  ZINC000656860804   -0.0100
     14 C14         2.4581    1.6996   43.4879 C.ar    1  ZINC000656860804   -0.0900
     15 C15         1.4729    2.0352   44.3985 C.ar    1  ZINC000656860804    0.0100
     16 Br16        1.8637    3.2184   45.8208 Br      1  ZINC000656860804    0.0100
     17 C17        -0.3431    2.3223   48.0464 C.3     1  ZINC000656860804    0.0900
     18 C18        -1.2998    1.9223   49.1712 C.3     1  ZINC000656860804    0.0800
     19 N19        -1.2543    0.4855   49.4034 N.am    1  ZINC000656860804   -0.7100
     20 H20         0.8181   -0.2002   47.1747 H       1  ZINC000656860804    0.1200
     21 H21        -0.7235   -0.6386   46.3957 H       1  ZINC000656860804    0.1200
     22 H22        -1.0735    0.2145   43.1393 H       1  ZINC000656860804    0.1700
     23 H23         3.4495    2.1164   43.5866 H       1  ZINC000656860804    0.1700
     24 H24         0.6861    2.2630   48.4005 H       1  ZINC000656860804    0.1000
     25 H25        -0.5626    3.3392   47.7211 H       1  ZINC000656860804    0.1200
     26 H26        -1.0175    2.4449   50.0852 H       1  ZINC000656860804    0.1000
     27 H27        -2.3157    2.2058   48.8959 H       1  ZINC000656860804    0.0800
     28 H28        -1.5488    0.1588   50.2680 H       1  ZINC000656860804    0.4000
@<TRIPOS>BOND
     1     1     2    2
     2     2    19   am
     3     2     3    1
     4     3     4    1
     5     3    20    1
     6     3    21    1
     7     4     5   am
     8     4    17    1
     9     5     6    2
    10     5     7    2
    11     5     8    1
    12     8    15   ar
    13     8     9   ar
    14     9    10   ar
    15     9    22    1
    16    10    11    1
    17    10    12   ar
    18    12    13    1
    19    12    14   ar
    20    14    15   ar
    21    14    23    1
    22    15    16    1
    23    17    18    1
    24    17    24    1
    25    17    25    1
    26    18    19    1
    27    18    26    1
    28    18    27    1
    29    19    28    1
@<TRIPOS>SUBSTRUCTURE
     1 ZINC000656860804        1 TEMP              0 ****  ****    0 ROOT


##########                                Name:      oleObject5.pdb
##########                DOCK_Rotatable_Bonds:                   5
##########                         Heavy_Atoms:                  24
##########                    Molecular_Weight:             323.438
##########                DOCK_Rotatable_Bonds:                   5
##########                       Formal_Charge:         0.000200074
##########                     HBond_Acceptors:                   4
##########                        HBond_Donors:                   2
##########                         Heavy_Atoms:                  24
##########                          Grid_Score:          -26.420443
##########                     Grid_vdw_energy:          -26.162344
##########                      Grid_es_energy:           -0.258098
##########           Internal_energy_repulsive:           14.463855

@<TRIPOS>MOLECULE
oleObject5.pdb
 49 51 1 0 0
SMALL
NO_CHARGES


@<TRIPOS>ATOM
      1 C           1.5615    2.5161   48.8764 C.3     1  UNL        -0.0394
      2 C           0.7864    1.2077   48.7549 C.ar    1  UNL        -0.0456
      3 C           1.5203    0.0250   48.5371 C.ar    1  UNL        -0.0590
      4 C           0.8710   -1.2093   48.3942 C.ar    1  UNL        -0.0620
      5 C          -0.5260   -1.2722   48.4622 C.ar    1  UNL        -0.0619
      6 C          -1.2679   -0.1018   48.6761 C.ar    1  UNL        -0.0565
      7 C          -0.6297    1.1471   48.8328 C.ar    1  UNL        -0.0188
      8 C          -1.5039    2.3923   49.0342 C.3     1  UNL         0.0906
      9 N          -1.2903    2.9263   50.3909 N.am    1  UNL        -0.3025
     10 C          -2.2014    3.7474   51.0305 C.2     1  UNL         0.2156
     11 O          -3.3161    3.9505   50.5807 O.2     1  UNL        -0.2774
     12 C          -1.7662    4.1833   52.4425 C.3     1  UNL         0.0382
     13 C          -2.9899    4.4194   53.3678 C.3     1  UNL        -0.0292
     14 C          -3.7251    5.7322   53.0203 C.3     1  UNL        -0.0041
     15 N          -2.8026    6.8788   53.0826 N.4     1  UNL        -0.3167
     16 C          -1.6481    6.7507   52.1756 C.3     1  UNL        -0.0041
     17 C          -0.8578    5.4433   52.4351 C.3     1  UNL        -0.0292
     18 C          -1.2671    3.4415   47.9343 C.ar    1  UNL         0.0681
     19 N          -0.7273    4.6208   48.3276 N.ar    1  UNL        -0.2587
     20 C          -0.4872    5.5767   47.4106 C.ar    1  UNL         0.0272
     21 C          -0.7700    5.4054   46.0477 C.ar    1  UNL        -0.0435
     22 C          -1.3238    4.1888   45.6248 C.ar    1  UNL        -0.0559
     23 C          -1.5796    3.1828   46.5759 C.ar    1  UNL        -0.0272
     24 C          -2.1730    1.8573   46.1153 C.3     1  UNL        -0.0379
     25 H           2.6430    2.3405   48.9322 H       1  UNL         0.0280
     26 H           1.2846    3.0730   49.7784 H       1  UNL         0.0280
     27 H           1.3863    3.1600   48.0078 H       1  UNL         0.0280
     28 H           2.6043    0.0611   48.4722 H       1  UNL         0.0626
     29 H           1.4496   -2.1129   48.2252 H       1  UNL         0.0623
     30 H          -1.0346   -2.2249   48.3451 H       1  UNL         0.0623
     31 H          -2.3511   -0.1690   48.7129 H       1  UNL         0.0627
     32 H          -2.5596    2.1123   48.9708 H       1  UNL         0.0624
     33 H          -0.6777    2.3816   50.9838 H       1  UNL         0.1504
     34 H          -1.1820    3.3508   52.8556 H       1  UNL         0.0402
     35 H          -2.6460    4.4728   54.4088 H       1  UNL         0.0288
     36 H          -3.6894    3.5758   53.3154 H       1  UNL         0.0288
     37 H          -4.5529    5.8840   53.7244 H       1  UNL         0.0428
     38 H          -4.1533    5.6542   52.0124 H       1  UNL         0.0428
     39 H          -2.4620    6.9746   54.0386 H       1  UNL         0.1222
     40 H          -0.9793    7.6107   52.3060 H       1  UNL         0.0428
     41 H          -2.0007    6.7657   51.1368 H       1  UNL         0.0428
     42 H          -0.3623    5.5256   53.4111 H       1  UNL         0.0288
     43 H          -0.0606    5.3325   51.6887 H       1  UNL         0.0288
     44 H          -0.0555    6.5060   47.7800 H       1  UNL         0.0840
     45 H          -0.5626    6.1983   45.3352 H       1  UNL         0.0639
     46 H          -1.5489    4.0307   44.5738 H       1  UNL         0.0627
     47 H          -2.3441    1.8460   45.0316 H       1  UNL         0.0280
     48 H          -3.1389    1.6670   46.5989 H       1  UNL         0.0280
     49 H          -1.5004    1.0225   46.3466 H       1  UNL         0.0280
@<TRIPOS>BOND
     1     1     2    1
     2     1    25    1
     3     1    26    1
     4     1    27    1
     5     2     3   ar
     6     2     7   ar
     7     3     4   ar
     8     3    28    1
     9     4     5   ar
    10     4    29    1
    11     5     6   ar
    12     5    30    1
    13     6     7   ar
    14     6    31    1
    15     7     8    1
    16     8     9    1
    17     8    18    1
    18     8    32    1
    19     9    10   am
    20     9    33    1
    21    10    11    2
    22    10    12    1
    23    12    13    1
    24    12    17    1
    25    12    34    1
    26    13    14    1
    27    13    35    1
    28    13    36    1
    29    14    15    1
    30    14    37    1
    31    14    38    1
    32    15    16    1
    33    15    39    1
    34    16    17    1
    35    16    40    1
    36    16    41    1
    37    17    42    1
    38    17    43    1
    39    18    19   ar
    40    18    23   ar
    41    19    20   ar
    42    20    21   ar
    43    20    44    1
    44    21    22   ar
    45    21    45    1
    46    22    23   ar
    47    22    46    1
    48    23    24    1
    49    24    47    1
    50    24    48    1
    51    24    49    1
@<TRIPOS>SUBSTRUCTURE
     1 UNL         1 TEMP              0 ****  ****    0 ROOT


##########                                Name:    ZINC000800038938
##########                DOCK_Rotatable_Bonds:                   6
##########                         Heavy_Atoms:                  25
##########                    Molecular_Weight:             386.274
##########                DOCK_Rotatable_Bonds:                   6
##########                       Formal_Charge:           0.0200003
##########                     HBond_Acceptors:                   7
##########                        HBond_Donors:                   0
##########                         Heavy_Atoms:                  25
##########                          Grid_Score:          -26.369635
##########                     Grid_vdw_energy:          -25.529245
##########                      Grid_es_energy:           -0.840389
##########           Internal_energy_repulsive:           13.571208

@<TRIPOS>MOLECULE
ZINC000800038938
 46 48 1 0 0
SMALL
USER_CHARGES


@<TRIPOS>ATOM
      1 C1         -8.3271   -0.7663   64.1765 C.3     1  ZINC000800038938    0.0300
      2 O2         -9.2800   -0.9453   63.1266 O.3     1  ZINC000800038938   -0.3800
      3 C3         -8.7194   -0.8719   61.8141 C.3     1  ZINC000800038938    0.0900
      4 H4         -7.9454   -1.6303   61.6961 H       1  ZINC000800038938    0.0700
      5 C5         -8.1261    0.5311   61.5708 C.3     1  ZINC000800038938   -0.1400
      6 C6         -8.4455    0.8259   60.0841 C.3     1  ZINC000800038938   -0.1400
      7 C7         -9.8584    0.2155   59.9105 C.3     1  ZINC000800038938    0.0900
      8 H8        -10.6184    0.8992   60.2887 H       1  ZINC000800038938    0.0900
      9 O9        -10.1084   -0.0987   58.5152 O.3     1  ZINC000800038938   -0.3500
     10 C10       -10.2904    0.9367   57.6805 C.2     1  ZINC000800038938    0.4500
     11 O11       -10.0687    2.0629   58.0577 O.2     1  ZINC000800038938   -0.4800
     12 C12       -10.7715    0.6944   56.2731 C.3     1  ZINC000800038938    0.1500
     13 H13       -11.4064    1.5199   55.9512 H       1  ZINC000800038938    0.1200
     14 C14        -9.5639    0.5592   55.3216 C.3     1  ZINC000800038938   -0.1200
     15 C15       -10.0125   -0.5626   54.3481 C.3     1  ZINC000800038938   -0.1300
     16 C16       -10.8229   -1.4868   55.2907 C.3     1  ZINC000800038938    0.0900
     17 N17       -11.5229   -0.5678   56.2119 N.am    1  ZINC000800038938   -0.6000
     18 C18       -12.6579   -0.8435   56.8845 C.2     1  ZINC000800038938    0.5800
     19 O19       -13.1475   -0.0076   57.6187 O.2     1  ZINC000800038938   -0.4900
     20 C20       -13.3068   -2.1621   56.7294 C.ar    1  ZINC000800038938   -0.1100
     21 C21       -14.3365   -2.3320   55.8026 C.ar    1  ZINC000800038938   -0.0700
     22 C22       -14.9384   -3.5665   55.6629 C.ar    1  ZINC000800038938   -0.0400
     23 Cl23      -16.2190   -3.7801   54.5104 Cl      1  ZINC000800038938   -0.0500
     24 C24       -14.5228   -4.6351   56.4397 C.ar    1  ZINC000800038938   -0.0700
     25 C25       -13.5034   -4.4737   57.3602 C.ar    1  ZINC000800038938   -0.1000
     26 C26       -12.8883   -3.2458   57.5059 C.ar    1  ZINC000800038938    0.0100
     27 Cl27      -11.6089   -3.0452   58.6620 Cl      1  ZINC000800038938   -0.0300
     28 C28        -9.8206   -1.0738   60.7586 C.3     1  ZINC000800038938   -0.1200
     29 H29        -8.8312   -0.8359   65.1404 H       1  ZINC000800038938    0.0900
     30 H30        -7.5628   -1.5404   64.1094 H       1  ZINC000800038938    0.0400
     31 H31        -7.8606    0.2142   64.0804 H       1  ZINC000800038938    0.0400
     32 H32        -8.6063    1.2658   62.2171 H       1  ZINC000800038938    0.0800
     33 H33        -7.0486    0.5234   61.7352 H       1  ZINC000800038938    0.0800
     34 H34        -8.4632    1.8998   59.8984 H       1  ZINC000800038938    0.0800
     35 H35        -7.7280    0.3313   59.4294 H       1  ZINC000800038938    0.0800
     36 H36        -9.3911    1.4910   54.7830 H       1  ZINC000800038938    0.1000
     37 H37        -8.6718    0.2590   55.8711 H       1  ZINC000800038938    0.0900
     38 H38       -10.6443   -0.1623   53.5552 H       1  ZINC000800038938    0.0900
     39 H39        -9.1517   -1.0865   53.9325 H       1  ZINC000800038938    0.1000
     40 H40       -11.5441   -2.0720   54.7203 H       1  ZINC000800038938    0.0900
     41 H41       -10.1534   -2.1443   55.8453 H       1  ZINC000800038938    0.0800
     42 H42       -14.6619   -1.4996   55.1964 H       1  ZINC000800038938    0.1500
     43 H43       -14.9971   -5.5987   56.3263 H       1  ZINC000800038938    0.1500
     44 H44       -13.1843   -5.3112   57.9631 H       1  ZINC000800038938    0.1500
     45 H45        -9.5814   -1.9293   60.1269 H       1  ZINC000800038938    0.0900
     46 H46       -10.7827   -1.2275   61.2475 H       1  ZINC000800038938    0.0900
@<TRIPOS>BOND
     1     1     2    1
     2     1    29    1
     3     1    30    1
     4     1    31    1
     5     2     3    1
     6     3     4    1
     7     3    28    1
     8     3     5    1
     9     5     6    1
    10     5    32    1
    11     5    33    1
    12     6     7    1
    13     6    34    1
    14     6    35    1
    15     7     8    1
    16     7     9    1
    17     7    28    1
    18     9    10    1
    19    10    11    2
    20    10    12    1
    21    12    13    1
    22    12    17    1
    23    12    14    1
    24    14    15    1
    25    14    36    1
    26    14    37    1
    27    15    16    1
    28    15    38    1
    29    15    39    1
    30    16    17    1
    31    16    40    1
    32    16    41    1
    33    17    18   am
    34    18    19    2
    35    18    20    1
    36    20    26   ar
    37    20    21   ar
    38    21    22   ar
    39    21    42    1
    40    22    23    1
    41    22    24   ar
    42    24    25   ar
    43    24    43    1
    44    25    26   ar
    45    25    44    1
    46    26    27    1
    47    28    45    1
    48    28    46    1
@<TRIPOS>SUBSTRUCTURE
     1 ZINC000800038938        1 TEMP              0 ****  ****    0 ROOT


##########                                Name:    ZINC001023148918
##########                DOCK_Rotatable_Bonds:                   6
##########                         Heavy_Atoms:                  25
##########                    Molecular_Weight:             348.402
##########                DOCK_Rotatable_Bonds:                   6
##########                       Formal_Charge:           0.0199999
##########                     HBond_Acceptors:                   8
##########                        HBond_Donors:                   2
##########                         Heavy_Atoms:                  25
##########                          Grid_Score:          -26.338984
##########                     Grid_vdw_energy:          -26.304911
##########                      Grid_es_energy:           -0.034073
##########           Internal_energy_repulsive:           17.981413

@<TRIPOS>MOLECULE
ZINC001023148918
 49 52 1 0 0
SMALL
USER_CHARGES


@<TRIPOS>ATOM
      1 C1         -4.2990    3.4432   55.1017 C.3     1  ZINC001023148918   -0.0700
      2 C2         -5.6023    2.8121   55.5196 C.2     1  ZINC001023148918    0.0200
      3 N3         -6.7133    2.8088   54.8282 N.2     1  ZINC001023148918   -0.2700
      4 N4         -7.6444    2.1883   55.4590 N.pl3   1  ZINC001023148918   -0.2500
      5 C5         -9.0127    1.9984   54.9715 C.3     1  ZINC001023148918    0.0800
      6 C6         -7.1638    1.7324   56.6537 C.2     1  ZINC001023148918   -0.0400
      7 C7         -7.9063    0.9734   57.6726 C.2     1  ZINC001023148918    0.6000
      8 O8         -7.3999    0.7539   58.7565 O.2     1  ZINC001023148918   -0.5300
      9 N9         -9.1476    0.5216   57.4048 N.am    1  ZINC001023148918   -0.7000
     10 C10        -9.8867   -0.2340   58.4192 C.3     1  ZINC001023148918    0.1500
     11 H11        -9.2256   -0.9155   58.9545 H       1  ZINC001023148918    0.1200
     12 C12       -11.0764   -0.9976   57.7856 C.3     1  ZINC001023148918    0.1000
     13 N13       -12.0387   -1.1784   58.8878 N.am    1  ZINC001023148918   -0.6200
     14 C14       -12.9784   -2.1418   58.9599 C.2     1  ZINC001023148918    0.5400
     15 O15       -13.7188   -2.1962   59.9189 O.2     1  ZINC001023148918   -0.5200
     16 C16       -13.1090   -3.1515   57.8488 C.3     1  ZINC001023148918   -0.1400
     17 H17       -12.1760   -3.6990   57.7148 H       1  ZINC001023148918    0.1100
     18 C18       -13.5358   -2.4622   56.5278 C.3     1  ZINC001023148918   -0.1400
     19 C19       -14.9081   -3.1316   56.2171 C.3     1  ZINC001023148918    0.0600
     20 H20       -15.5663   -2.5646   55.5587 H       1  ZINC001023148918    0.1300
     21 C21       -14.5640   -4.5736   55.7374 C.3     1  ZINC001023148918   -0.1500
     22 C22       -14.1283   -5.2765   57.0484 C.3     1  ZINC001023148918   -0.1500
     23 C23       -14.2884   -4.1307   58.1287 C.3     1  ZINC001023148918    0.0900
     24 H24       -14.3983   -4.4713   59.1583 H       1  ZINC001023148918    0.1400
     25 O25       -15.4191   -3.3761   57.5686 O.3     1  ZINC001023148918   -0.3600
     26 C26       -11.8030   -0.1340   59.8954 C.3     1  ZINC001023148918    0.0700
     27 C27       -10.6157    0.7201   59.4019 C.3     1  ZINC001023148918    0.0900
     28 H28       -10.9705    1.6102   58.8823 H       1  ZINC001023148918    0.0800
     29 O29        -9.7636    1.0790   60.4914 O.3     1  ZINC001023148918   -0.5500
     30 C30        -5.8369    2.1216   56.7108 C.2     1  ZINC001023148918   -0.1800
     31 H31        -3.7051    2.7170   54.5470 H       1  ZINC001023148918    0.0800
     32 H32        -4.5004    4.3074   54.4687 H       1  ZINC001023148918    0.0700
     33 H33        -3.7493    3.7617   55.9874 H       1  ZINC001023148918    0.0800
     34 H34        -9.0545    1.1083   54.3436 H       1  ZINC001023148918    0.0900
     35 H35        -9.6869    1.8768   55.8194 H       1  ZINC001023148918    0.1100
     36 H36        -9.3149    2.8685   54.3889 H       1  ZINC001023148918    0.0900
     37 H37        -9.5514    0.6966   56.5405 H       1  ZINC001023148918    0.4100
     38 H38       -11.5227   -0.4077   56.9851 H       1  ZINC001023148918    0.0800
     39 H39       -10.7474   -1.9653   57.4067 H       1  ZINC001023148918    0.0900
     40 H40       -13.6540   -1.3885   56.6731 H       1  ZINC001023148918    0.0800
     41 H41       -12.8171   -2.6688   55.7347 H       1  ZINC001023148918    0.0900
     42 H42       -15.4425   -5.0591   55.3125 H       1  ZINC001023148918    0.0800
     43 H43       -13.7452   -4.5561   55.0181 H       1  ZINC001023148918    0.0800
     44 H44       -14.7897   -6.1123   57.2767 H       1  ZINC001023148918    0.0800
     45 H45       -13.0924   -5.6092   56.9823 H       1  ZINC001023148918    0.0800
     46 H46       -12.6913    0.4895   59.9979 H       1  ZINC001023148918    0.0800
     47 H47       -11.5566   -0.5920   60.8532 H       1  ZINC001023148918    0.0900
     48 H48        -9.3688    0.3232   60.9475 H       1  ZINC001023148918    0.3900
     49 H49        -5.1340    1.9365   57.5096 H       1  ZINC001023148918    0.1600
@<TRIPOS>BOND
     1     1     2    1
     2     1    31    1
     3     1    32    1
     4     1    33    1
     5     2    30    1
     6     2     3    2
     7     3     4    1
     8     4     5    1
     9     4     6    1
    10     5    34    1
    11     5    35    1
    12     5    36    1
    13     6     7    1
    14     6    30    2
    15     7     8    2
    16     7     9   am
    17     9    10    1
    18     9    37    1
    19    10    11    1
    20    10    27    1
    21    10    12    1
    22    12    13    1
    23    12    38    1
    24    12    39    1
    25    13    14   am
    26    13    26    1
    27    14    15    2
    28    14    16    1
    29    16    17    1
    30    16    23    1
    31    16    18    1
    32    18    19    1
    33    18    40    1
    34    18    41    1
    35    19    20    1
    36    19    25    1
    37    19    21    1
    38    21    22    1
    39    21    42    1
    40    21    43    1
    41    22    23    1
    42    22    44    1
    43    22    45    1
    44    23    24    1
    45    23    25    1
    46    26    27    1
    47    26    46    1
    48    26    47    1
    49    27    28    1
    50    27    29    1
    51    29    48    1
    52    30    49    1
@<TRIPOS>SUBSTRUCTURE
     1 ZINC001023148918        1 TEMP              0 ****  ****    0 ROOT


##########                                Name:    ZINC000956479608
##########                DOCK_Rotatable_Bonds:                   5
##########                         Heavy_Atoms:                  25
##########                    Molecular_Weight:             345.442
##########                DOCK_Rotatable_Bonds:                   5
##########                       Formal_Charge:          -0.0100001
##########                     HBond_Acceptors:                   6
##########                        HBond_Donors:                   1
##########                         Heavy_Atoms:                  25
##########                          Grid_Score:          -26.291002
##########                     Grid_vdw_energy:          -26.028364
##########                      Grid_es_energy:           -0.262638
##########           Internal_energy_repulsive:           36.297993

@<TRIPOS>MOLECULE
ZINC000956479608
 52 55 1 0 0
SMALL
USER_CHARGES


@<TRIPOS>ATOM
      1 C1         -1.1204   -0.0712   47.8045 C.3     1  ZINC000956479608   -0.0900
      2 C2         -1.0151    0.4776   46.4049 C.2     1  ZINC000956479608   -0.1100
      3 C3         -0.6031    1.7230   46.0158 C.2     1  ZINC000956479608   -0.1000
      4 C4         -0.1622    2.8249   46.8917 C.2     1  ZINC000956479608    0.6100
      5 O5          0.2481    3.8611   46.4055 O.2     1  ZINC000956479608   -0.5000
      6 N6         -0.2142    2.6832   48.2310 N.am    1  ZINC000956479608   -0.7100
      7 C7          0.2253    3.7769   49.1009 C.3     1  ZINC000956479608    0.1800
      8 C8          1.6949    4.0947   48.8174 C.3     1  ZINC000956479608   -0.1700
      9 C9         -0.6263    5.0190   48.8283 C.3     1  ZINC000956479608   -0.1500
     10 C10        -2.1006    4.6876   49.0799 C.3     1  ZINC000956479608    0.1100
     11 N11        -2.2386    4.1479   50.4394 N.am    1  ZINC000956479608   -0.6100
     12 C12        -3.1187    4.6870   51.3062 C.2     1  ZINC000956479608    0.5500
     13 O13        -3.8072    5.6257   50.9662 O.2     1  ZINC000956479608   -0.5400
     14 C14        -3.2473    4.1233   52.6979 C.3     1  ZINC000956479608   -0.1900
     15 H15        -3.5887    3.0898   52.7572 H       1  ZINC000956479608    0.1200
     16 C16        -2.2462    4.5954   53.7441 C.3     1  ZINC000956479608   -0.1100
     17 H17        -1.5116    5.3259   53.4050 H       1  ZINC000956479608    0.1000
     18 C18        -1.7343    3.6224   54.7949 C.3     1  ZINC000956479608   -0.0900
     19 C19        -2.8996    2.8870   55.4568 C.3     1  ZINC000956479608   -0.1200
     20 C20        -3.8810    3.9257   56.0117 C.3     1  ZINC000956479608   -0.1200
     21 C21        -4.6527    4.5396   54.8435 C.3     1  ZINC000956479608   -0.0900
     22 C22        -3.6875    5.0822   53.8149 C.3     1  ZINC000956479608   -0.1100
     23 H23        -3.8477    6.1208   53.5258 H       1  ZINC000956479608    0.1100
     24 C24        -1.3993    3.0090   50.8360 C.3     1  ZINC000956479608    0.1000
     25 C25         0.0672    3.3592   50.5647 C.3     1  ZINC000956479608   -0.1400
     26 O26        -0.6810    1.7391   44.6717 O.3     1  ZINC000956479608    0.1200
     27 N27        -1.0779    0.6826   44.2388 N.2     1  ZINC000956479608   -0.3400
     28 C28        -1.3129   -0.1756   45.1883 C.2     1  ZINC000956479608   -0.0100
     29 H29        -0.1758   -0.5381   48.0837 H       1  ZINC000956479608    0.0800
     30 H30        -1.3433    0.7402   48.4973 H       1  ZINC000956479608    0.0900
     31 H31        -1.9182   -0.8129   47.8449 H       1  ZINC000956479608    0.0800
     32 H32        -0.5426    1.8571   48.6189 H       1  ZINC000956479608    0.4100
     33 H33         1.8078    4.3917   47.7748 H       1  ZINC000956479608    0.0800
     34 H34         2.0221    4.9084   49.4646 H       1  ZINC000956479608    0.0700
     35 H35         2.3017    3.2101   49.0109 H       1  ZINC000956479608    0.0600
     36 H36        -0.3162    5.8257   49.4925 H       1  ZINC000956479608    0.0800
     37 H37        -0.4950    5.3297   47.7918 H       1  ZINC000956479608    0.1000
     38 H38        -2.7002    5.5927   48.9834 H       1  ZINC000956479608    0.0900
     39 H39        -2.4370    3.9452   48.3561 H       1  ZINC000956479608    0.0600
     40 H40        -1.0734    2.8965   54.3213 H       1  ZINC000956479608    0.0700
     41 H41        -1.1783    4.1725   55.5540 H       1  ZINC000956479608    0.0700
     42 H42        -3.4050    2.2633   54.7195 H       1  ZINC000956479608    0.0600
     43 H43        -2.5253    2.2657   56.2705 H       1  ZINC000956479608    0.0700
     44 H44        -4.5776    3.4418   56.6965 H       1  ZINC000956479608    0.0700
     45 H45        -3.3300    4.7059   56.5368 H       1  ZINC000956479608    0.0700
     46 H46        -5.2766    3.7749   54.3810 H       1  ZINC000956479608    0.0700
     47 H47        -5.2869    5.3454   55.2132 H       1  ZINC000956479608    0.0700
     48 H48        -1.5362    2.8067   51.8982 H       1  ZINC000956479608    0.0900
     49 H49        -1.6785    2.1297   50.2554 H       1  ZINC000956479608    0.0700
     50 H50         0.6920    2.4886   50.7641 H       1  ZINC000956479608    0.0900
     51 H51         0.3707    4.1815   51.2126 H       1  ZINC000956479608    0.0900
     52 H52        -1.6730   -1.1868   45.0699 H       1  ZINC000956479608    0.2000
@<TRIPOS>BOND
     1     1     2    1
     2     1    29    1
     3     1    30    1
     4     1    31    1
     5     2    28    1
     6     2     3    2
     7     3     4    1
     8     3    26    1
     9     4     5    2
    10     4     6   am
    11     6     7    1
    12     6    32    1
    13     7    25    1
    14     7     8    1
    15     7     9    1
    16     8    33    1
    17     8    34    1
    18     8    35    1
    19     9    10    1
    20     9    36    1
    21     9    37    1
    22    10    11    1
    23    10    38    1
    24    10    39    1
    25    11    12   am
    26    11    24    1
    27    12    13    2
    28    12    14    1
    29    14    15    1
    30    14    22    1
    31    14    16    1
    32    16    17    1
    33    16    22    1
    34    16    18    1
    35    18    19    1
    36    18    40    1
    37    18    41    1
    38    19    20    1
    39    19    42    1
    40    19    43    1
    41    20    21    1
    42    20    44    1
    43    20    45    1
    44    21    22    1
    45    21    46    1
    46    21    47    1
    47    22    23    1
    48    24    25    1
    49    24    48    1
    50    24    49    1
    51    25    50    1
    52    25    51    1
    53    26    27    1
    54    27    28    2
    55    28    52    1
@<TRIPOS>SUBSTRUCTURE
     1 ZINC000956479608        1 TEMP              0 ****  ****    0 ROOT


##########                                Name:    ZINC000879023512
##########                DOCK_Rotatable_Bonds:                   4
##########                         Heavy_Atoms:                  20
##########                    Molecular_Weight:             346.156
##########                DOCK_Rotatable_Bonds:                   4
##########                       Formal_Charge:        -5.96046e-08
##########                     HBond_Acceptors:                   7
##########                        HBond_Donors:                   1
##########                         Heavy_Atoms:                  20
##########                          Grid_Score:          -26.259096
##########                     Grid_vdw_energy:          -24.232340
##########                      Grid_es_energy:           -2.026756
##########           Internal_energy_repulsive:            3.645123

@<TRIPOS>MOLECULE
ZINC000879023512
 33 34 1 0 0
SMALL
USER_CHARGES


@<TRIPOS>ATOM
      1 O1          0.5829    3.3628   50.6232 O.2     1  ZINC000879023512   -0.5600
      2 C2         -0.4662    3.3138   51.2358 C.2     1  ZINC000879023512    0.7200
      3 N3         -1.5842    2.8760   50.6235 N.am    1  ZINC000879023512   -0.6800
      4 C4         -1.5387    2.4831   49.2807 C.ar    1  ZINC000879023512    0.1800
      5 C5         -1.6637    3.4313   48.2742 C.ar    1  ZINC000879023512   -0.0900
      6 C6         -1.6184    3.0410   46.9499 C.ar    1  ZINC000879023512   -0.0700
      7 C7         -1.4493    1.7067   46.6262 C.ar    1  ZINC000879023512   -0.0700
      8 Br8        -1.3878    1.1760   44.8122 Br      1  ZINC000879023512    0.0200
      9 C9         -1.3245    0.7596   47.6274 C.ar    1  ZINC000879023512    0.0000
     10 N10        -1.1435   -0.6671   47.2773 N.pl3   1  ZINC000879023512    0.0200
     11 O11        -1.0337   -1.5011   48.1581 O.2     1  ZINC000879023512   -0.1500
     12 O12        -1.1046   -1.0072   46.1084 O.2     1  ZINC000879023512   -0.1300
     13 C13        -1.3627    1.1451   48.9529 C.ar    1  ZINC000879023512   -0.0500
     14 N14        -0.5099    3.6921   52.5286 N.am    1  ZINC000879023512   -0.6300
     15 C15         0.6277    4.1932   53.3138 C.3     1  ZINC000879023512    0.0900
     16 C16         0.1115    4.4737   54.7407 C.3     1  ZINC000879023512   -0.1200
     17 C17        -1.1544    3.5814   54.8340 C.3     1  ZINC000879023512   -0.1400
     18 H18        -0.8908    2.5544   55.0871 H       1  ZINC000879023512    0.1000
     19 C19        -2.1546    4.1519   55.8414 C.3     1  ZINC000879023512    0.0700
     20 F20        -2.5508    5.4298   55.4326 F       1  ZINC000879023512   -0.2100
     21 C21        -1.7077    3.6781   53.3879 C.3     1  ZINC000879023512    0.1300
     22 H22        -2.4203    2.8331   51.1133 H       1  ZINC000879023512    0.4200
     23 H23        -1.7965    4.4730   48.5264 H       1  ZINC000879023512    0.1600
     24 H24        -1.7156    3.7781   46.1666 H       1  ZINC000879023512    0.1600
     25 H25        -1.2649    0.4057   49.7339 H       1  ZINC000879023512    0.1800
     26 H26         1.4160    3.4411   53.3458 H       1  ZINC000879023512    0.0700
     27 H27         1.0081    5.1131   52.8696 H       1  ZINC000879023512    0.0700
     28 H28         0.8503    4.1737   55.4840 H       1  ZINC000879023512    0.0900
     29 H29        -0.1489    5.5256   54.8569 H       1  ZINC000879023512    0.0900
     30 H30        -3.0273    3.5009   55.8953 H       1  ZINC000879023512    0.0800
     31 H31        -1.6860    4.2135   56.8236 H       1  ZINC000879023512    0.0800
     32 H32        -2.2821    4.5959   53.2622 H       1  ZINC000879023512    0.0800
     33 H33        -2.3246    2.8091   53.1589 H       1  ZINC000879023512    0.0900
@<TRIPOS>BOND
     1     1     2    2
     2     2     3   am
     3     2    14   am
     4     3     4    1
     5     3    22    1
     6     4    13   ar
     7     4     5   ar
     8     5     6   ar
     9     5    23    1
    10     6     7   ar
    11     6    24    1
    12     7     8    1
    13     7     9   ar
    14     9    10    1
    15     9    13   ar
    16    10    11    2
    17    10    12    2
    18    13    25    1
    19    14    21    1
    20    14    15    1
    21    15    16    1
    22    15    26    1
    23    15    27    1
    24    16    17    1
    25    16    28    1
    26    16    29    1
    27    17    18    1
    28    17    19    1
    29    17    21    1
    30    19    20    1
    31    19    30    1
    32    19    31    1
    33    21    32    1
    34    21    33    1
@<TRIPOS>SUBSTRUCTURE
     1 ZINC000879023512        1 TEMP              0 ****  ****    0 ROOT


##########                                Name:    ZINC001045463759
##########                DOCK_Rotatable_Bonds:                   6
##########                         Heavy_Atoms:                  24
##########                    Molecular_Weight:             336.385
##########                DOCK_Rotatable_Bonds:                   6
##########                       Formal_Charge:          1.3411e-07
##########                     HBond_Acceptors:                   7
##########                        HBond_Donors:                   2
##########                         Heavy_Atoms:                  24
##########                          Grid_Score:          -26.184792
##########                     Grid_vdw_energy:          -24.623438
##########                      Grid_es_energy:           -1.561354
##########           Internal_energy_repulsive:            9.300627

@<TRIPOS>MOLECULE
ZINC001045463759
 46 49 1 0 0
SMALL
USER_CHARGES


@<TRIPOS>ATOM
      1 O1         -1.9007    3.8328   53.4512 O.2     1  ZINC001045463759   -0.5100
      2 C2         -2.6964    3.7442   52.5402 C.2     1  ZINC001045463759    0.5400
      3 N3         -2.2611    3.7246   51.2648 N.am    1  ZINC001045463759   -0.7200
      4 C4         -0.8272    3.8165   50.9787 C.3     1  ZINC001045463759    0.1400
      5 H5         -0.2653    3.3374   51.7805 H       1  ZINC001045463759    0.1000
      6 C6         -0.4202    5.2880   50.8794 C.3     1  ZINC001045463759   -0.1300
      7 C7          1.0772    5.3839   50.5806 C.3     1  ZINC001045463759   -0.1200
      8 C8          1.3790    4.6807   49.2557 C.3     1  ZINC001045463759   -0.1200
      9 C9          0.9721    3.2092   49.3550 C.3     1  ZINC001045463759   -0.1300
     10 C10        -0.5254    3.1132   49.6539 C.3     1  ZINC001045463759    0.1500
     11 H11        -1.0873    3.5924   48.8520 H       1  ZINC001045463759    0.0900
     12 N12        -0.9151    1.7043   49.7489 N.pl3   1  ZINC001045463759   -0.7100
     13 C13        -0.8721    0.8962   48.6244 C.ar    1  ZINC001045463759    0.4400
     14 C14        -0.8152   -0.4931   48.7510 C.ar    1  ZINC001045463759   -0.3000
     15 C15        -0.7739   -1.2551   47.5999 C.ar    1  ZINC001045463759    0.1800
     16 N16        -0.7894   -0.6480   46.4216 N.ar    1  ZINC001045463759   -0.5600
     17 C17        -0.8434    0.6659   46.3355 C.ar    1  ZINC001045463759    0.4000
     18 C18        -0.8590    1.3108   44.9735 C.3     1  ZINC001045463759   -0.1100
     19 C19         0.4326    1.2637   44.1548 C.3     1  ZINC001045463759   -0.1500
     20 C20        -0.7586    0.3908   43.7551 C.3     1  ZINC001045463759   -0.1500
     21 N21        -0.8898    1.4312   47.4069 N.ar    1  ZINC001045463759   -0.5700
     22 C22        -4.1714    3.6497   52.8344 C.3     1  ZINC001045463759   -0.2000
     23 H23        -4.8192    3.5522   51.9632 H       1  ZINC001045463759    0.1500
     24 C24        -4.5915    2.9209   54.1124 C.3     1  ZINC001045463759   -0.1500
     25 C25        -4.7062    4.4450   54.0271 C.3     1  ZINC001045463759    0.2300
     26 F26        -3.7885    5.2038   54.7614 F       1  ZINC001045463759   -0.1400
     27 F27        -5.9894    4.9910   53.9164 F       1  ZINC001045463759   -0.1500
     28 H28        -2.8971    3.6498   50.5363 H       1  ZINC001045463759    0.4000
     29 H29        -0.9821    5.7670   50.0776 H       1  ZINC001045463759    0.0700
     30 H30        -0.6352    5.7890   51.8233 H       1  ZINC001045463759    0.0800
     31 H31         1.3673    6.4323   50.5098 H       1  ZINC001045463759    0.0700
     32 H32         1.6391    4.9049   51.3824 H       1  ZINC001045463759    0.0700
     33 H33         0.8172    5.1597   48.4539 H       1  ZINC001045463759    0.0700
     34 H34         2.4459    4.7491   49.0429 H       1  ZINC001045463759    0.0700
     35 H35         1.1871    2.7082   48.4112 H       1  ZINC001045463759    0.0700
     36 H36         1.5340    2.7302   50.1569 H       1  ZINC001045463759    0.0700
     37 H37        -1.2033    1.3371   50.5992 H       1  ZINC001045463759    0.4100
     38 H38        -0.8034   -0.9602   49.7247 H       1  ZINC001045463759    0.1400
     39 H39        -0.7290   -2.3326   47.6589 H       1  ZINC001045463759    0.1700
     40 H40        -1.4811    2.2011   44.8820 H       1  ZINC001045463759    0.1300
     41 H41         0.6607    2.1233   43.5245 H       1  ZINC001045463759    0.1000
     42 H42         1.2937    0.7663   44.6014 H       1  ZINC001045463759    0.1100
     43 H43        -0.6814   -0.6808   43.9387 H       1  ZINC001045463759    0.1000
     44 H44        -1.3144    0.6760   42.8619 H       1  ZINC001045463759    0.1000
     45 H45        -5.5160    2.3443   54.0821 H       1  ZINC001045463759    0.1400
     46 H46        -3.8011    2.5097   54.7403 H       1  ZINC001045463759    0.1300
@<TRIPOS>BOND
     1     1     2    2
     2     2     3   am
     3     2    22    1
     4     3     4    1
     5     3    28    1
     6     4     5    1
     7     4    10    1
     8     4     6    1
     9     6     7    1
    10     6    29    1
    11     6    30    1
    12     7     8    1
    13     7    31    1
    14     7    32    1
    15     8     9    1
    16     8    33    1
    17     8    34    1
    18     9    10    1
    19     9    35    1
    20     9    36    1
    21    10    11    1
    22    10    12    1
    23    12    13    1
    24    12    37    1
    25    13    21   ar
    26    13    14   ar
    27    14    15   ar
    28    14    38    1
    29    15    16   ar
    30    15    39    1
    31    16    17   ar
    32    17    18    1
    33    17    21   ar
    34    18    20    1
    35    18    19    1
    36    18    40    1
    37    19    20    1
    38    19    41    1
    39    19    42    1
    40    20    43    1
    41    20    44    1
    42    22    23    1
    43    22    25    1
    44    22    24    1
    45    24    25    1
    46    24    45    1
    47    24    46    1
    48    25    26    1
    49    25    27    1
@<TRIPOS>SUBSTRUCTURE
     1 ZINC001045463759        1 TEMP              0 ****  ****    0 ROOT


##########                                Name:    ZINC000493443319
##########                DOCK_Rotatable_Bonds:                   6
##########                         Heavy_Atoms:                  25
##########                    Molecular_Weight:             348.399
##########                DOCK_Rotatable_Bonds:                   6
##########                       Formal_Charge:        -3.27826e-07
##########                     HBond_Acceptors:                   7
##########                        HBond_Donors:                   0
##########                         Heavy_Atoms:                  25
##########                          Grid_Score:          -26.095461
##########                     Grid_vdw_energy:          -25.246874
##########                      Grid_es_energy:           -0.848587
##########           Internal_energy_repulsive:           49.792965

@<TRIPOS>MOLECULE
ZINC000493443319
 49 51 1 0 0
SMALL
USER_CHARGES


@<TRIPOS>ATOM
      1 C1         -7.5165   -0.0749   60.0479 C.3     1  <0>        -0.1500
      2 C2         -7.6607   -0.0692   61.5711 C.3     1  <0>         0.0500
      3 O3         -8.5245   -1.1346   61.9718 O.3     1  <0>        -0.3200
      4 C4         -9.7847   -1.1330   61.4608 C.ar    1  <0>         0.1000
      5 C5        -10.3588   -2.3190   61.0276 C.ar    1  <0>        -0.1700
      6 C6        -11.6389   -2.3175   60.5085 C.ar    1  <0>        -0.1100
      7 C7        -12.3503   -1.1300   60.4209 C.ar    1  <0>         0.0800
      8 O8        -13.6103   -1.1285   59.9095 O.3     1  <0>        -0.3000
      9 C9        -14.6843   -1.3314   60.8302 C.3     1  <0>         0.1000
     10 C10       -14.5133   -2.6848   61.5230 C.3     1  <0>        -0.1800
     11 C11       -14.6749   -0.2169   61.8784 C.3     1  <0>        -0.1500
     12 C12       -15.9946   -1.3100   60.0860 C.2     1  <0>         0.5100
     13 O13       -16.8913   -0.5830   60.4578 O.2     1  <0>        -0.5200
     14 N14       -16.1699   -2.0989   59.0074 N.am    1  <0>        -0.6000
     15 C15       -17.4453   -2.0804   58.2802 C.3     1  <0>         0.0700
     16 C16       -17.1768   -1.7435   56.8047 C.3     1  <0>         0.1300
     17 N17       -16.0448   -2.5708   56.3644 N.am    1  <0>        -0.6300
     18 C18       -15.9765   -3.3882   55.3123 C.2     1  <0>         0.6500
     19 O19       -16.8309   -3.4350   54.4496 O.2     1  <0>        -0.5200
     20 O20       -14.8763   -4.1527   55.2975 O.3     1  <0>        -0.3200
     21 C21       -14.0167   -3.7895   56.4183 C.3     1  <0>         0.0500
     22 C22       -14.7613   -2.6282   57.0967 C.3     1  <0>         0.0800
     23 H23       -14.2077   -1.6931   57.0114 H       1  <0>         0.1100
     24 C24       -15.0818   -2.9771   58.5505 C.3     1  <0>         0.1000
     25 C25       -11.7767    0.0556   60.8554 C.ar    1  <0>        -0.1800
     26 C26       -10.4980    0.0535   61.3780 C.ar    1  <0>        -0.1100
     27 H27        -6.8576    0.7378   59.7422 H       1  <0>         0.0800
     28 H28        -7.0930   -1.0265   59.7266 H       1  <0>         0.0700
     29 H29        -8.4963    0.0599   59.5897 H       1  <0>         0.0700
     30 H30        -6.6808   -0.2039   62.0293 H       1  <0>         0.0600
     31 H31        -8.0842    0.8824   61.8923 H       1  <0>         0.0600
     32 H32        -9.8048   -3.2436   61.0957 H       1  <0>         0.1400
     33 H33       -12.0857   -3.2408   60.1705 H       1  <0>         0.1400
     34 H34       -13.6336   -2.6552   62.1659 H       1  <0>         0.0800
     35 H35       -15.3963   -2.8988   62.1252 H       1  <0>         0.0900
     36 H36       -14.3882   -3.4645   60.7716 H       1  <0>         0.0800
     37 H37       -14.7070    0.7515   61.3793 H       1  <0>         0.0800
     38 H38       -15.5448   -0.3207   62.5268 H       1  <0>         0.0900
     39 H39       -13.7660   -0.2878   62.4759 H       1  <0>         0.0900
     40 H40       -17.9190   -3.0595   58.3503 H       1  <0>         0.0800
     41 H41       -18.1009   -1.3249   58.7133 H       1  <0>         0.1300
     42 H42       -18.0584   -1.9729   56.2059 H       1  <0>         0.1100
     43 H43       -16.9249   -0.6877   56.7055 H       1  <0>         0.0800
     44 H44       -13.9102   -4.6286   57.1058 H       1  <0>         0.1100
     45 H45       -13.0409   -3.4609   56.0607 H       1  <0>         0.1100
     46 H46       -14.1985   -2.8214   59.1698 H       1  <0>         0.1100
     47 H47       -15.4008   -4.0172   58.6178 H       1  <0>         0.0800
     48 H48       -12.3308    0.9803   60.7875 H       1  <0>         0.1600
     49 H49       -10.0514    0.9768   61.7164 H       1  <0>         0.1300
@<TRIPOS>BOND
     1     1     2    1
     2     1    27    1
     3     1    28    1
     4     1    29    1
     5     2     3    1
     6     2    30    1
     7     2    31    1
     8     3     4    1
     9     4    26   ar
    10     4     5   ar
    11     5     6   ar
    12     5    32    1
    13     6     7   ar
    14     6    33    1
    15     7     8    1
    16     7    25   ar
    17     8     9    1
    18     9    10    1
    19     9    11    1
    20     9    12    1
    21    10    34    1
    22    10    35    1
    23    10    36    1
    24    11    37    1
    25    11    38    1
    26    11    39    1
    27    12    13    2
    28    12    14   am
    29    14    24    1
    30    14    15    1
    31    15    16    1
    32    15    40    1
    33    15    41    1
    34    16    17    1
    35    16    42    1
    36    16    43    1
    37    17    22    1
    38    17    18   am
    39    18    19    2
    40    18    20    1
    41    20    21    1
    42    21    22    1
    43    21    44    1
    44    21    45    1
    45    22    23    1
    46    22    24    1
    47    24    46    1
    48    24    47    1
    49    25    26   ar
    50    25    48    1
    51    26    49    1
@<TRIPOS>SUBSTRUCTURE
     1 <0>         1 TEMP              0 ****  ****    0 ROOT


##########                                Name:    ZINC000507831344
##########                DOCK_Rotatable_Bonds:                   6
##########                         Heavy_Atoms:                  31
##########                    Molecular_Weight:              422.53
##########                DOCK_Rotatable_Bonds:                   6
##########                       Formal_Charge:          -0.0200002
##########                     HBond_Acceptors:                   8
##########                        HBond_Donors:                   2
##########                         Heavy_Atoms:                  31
##########                          Grid_Score:          -26.089659
##########                     Grid_vdw_energy:          -24.850224
##########                      Grid_es_energy:           -1.239435
##########           Internal_energy_repulsive:           31.683674

@<TRIPOS>MOLECULE
ZINC000507831344
 61 64 1 0 0
SMALL
USER_CHARGES


@<TRIPOS>ATOM
      1 C1         -6.0054    2.7171   53.3099 C.3     1  ZINC000507831344   -0.1000
      2 C2         -4.6948    3.4384   53.1278 C.ar    1  ZINC000507831344   -0.0800
      3 C3         -3.8931    3.1679   52.0343 C.ar    1  ZINC000507831344   -0.0800
      4 C4         -2.6894    3.8594   51.9062 C.ar    1  ZINC000507831344    0.0900
      5 N5         -1.8452    3.6178   50.8134 N.am    1  ZINC000507831344   -0.6700
      6 C6         -1.3812    4.6484   50.0795 C.2     1  ZINC000507831344    0.5100
      7 O7         -1.6940    5.7852   50.3645 O.2     1  ZINC000507831344   -0.5100
      8 C8         -0.4737    4.3887   48.9047 C.3     1  ZINC000507831344   -0.1400
      9 C9         -1.0412    3.2421   48.0656 C.3     1  ZINC000507831344   -0.0500
     10 C10         0.0065    2.7651   47.0930 C.2     1  ZINC000507831344   -0.2200
     11 C11         0.8624    1.7683   47.4410 C.2     1  ZINC000507831344    0.2100
     12 C12         0.7743    1.1285   48.8026 C.3     1  ZINC000507831344   -0.1400
     13 N13         1.7987    1.3552   46.5458 N.pl3   1  ZINC000507831344   -0.3000
     14 N14         2.7952    0.3741   46.6142 N.am    1  ZINC000507831344   -0.5100
     15 C15         3.4628    0.3619   45.4446 C.2     1  ZINC000507831344    0.5500
     16 O16         4.3955   -0.3726   45.1622 O.2     1  ZINC000507831344   -0.5400
     17 C17         2.9066    1.3314   44.6114 C.2     1  ZINC000507831344   -0.3500
     18 C18         1.8686    1.9453   45.3089 C.2     1  ZINC000507831344    0.3500
     19 N19         1.0213    2.9257   44.9752 N.2     1  ZINC000507831344   -0.4800
     20 C20         0.1031    3.3405   45.8211 C.2     1  ZINC000507831344    0.2500
     21 C21        -0.8407    4.4459   45.4230 C.3     1  ZINC000507831344   -0.1200
     22 C22        -2.3376    4.7892   52.8723 C.ar    1  ZINC000507831344    0.0800
     23 N23        -3.1271    5.0225   53.9036 N.ar    1  ZINC000507831344   -0.4900
     24 C24        -4.2792    4.3888   54.0547 C.ar    1  ZINC000507831344    0.2800
     25 N25        -5.0792    4.6688   55.1592 N.3     1  ZINC000507831344   -0.4800
     26 C26        -4.7380    3.7969   56.2906 C.3     1  ZINC000507831344    0.0600
     27 C27        -5.7287    4.0308   57.4333 C.3     1  ZINC000507831344   -0.1200
     28 C28        -5.6694    5.4999   57.8609 C.3     1  ZINC000507831344   -0.1200
     29 C29        -5.9810    6.3879   56.6531 C.3     1  ZINC000507831344   -0.1100
     30 C30        -4.9831    6.0856   55.5329 C.3     1  ZINC000507831344    0.0900
     31 H31        -3.9724    6.3023   55.8788 H       1  ZINC000507831344    0.0600
     32 C32        -5.3033    6.9564   54.3163 C.3     1  ZINC000507831344   -0.1400
     33 H33        -6.8127    3.3199   52.8940 H       1  ZINC000507831344    0.0700
     34 H34        -5.9664    1.7571   52.7951 H       1  ZINC000507831344    0.0600
     35 H35        -6.1850    2.5526   54.3724 H       1  ZINC000507831344    0.0800
     36 H36        -4.1922    2.4378   51.2970 H       1  ZINC000507831344    0.1500
     37 H37        -1.5952    2.7087   50.5854 H       1  ZINC000507831344    0.4100
     38 H38        -0.4057    5.2879   48.2925 H       1  ZINC000507831344    0.1000
     39 H39         0.5189    4.1186   49.2651 H       1  ZINC000507831344    0.1000
     40 H40        -1.3294    2.4202   48.7211 H       1  ZINC000507831344    0.0900
     41 H41        -1.9149    3.5920   47.5159 H       1  ZINC000507831344    0.1000
     42 H42         0.0932    0.2785   48.7612 H       1  ZINC000507831344    0.1000
     43 H43         1.7634    0.7870   49.1082 H       1  ZINC000507831344    0.0800
     44 H44         0.4028    1.8571   49.5232 H       1  ZINC000507831344    0.1100
     45 H45         2.9747   -0.1996   47.3755 H       1  ZINC000507831344    0.4400
     46 H46         3.2238    1.5648   43.6058 H       1  ZINC000507831344    0.1700
     47 H47        -0.6108    4.7721   44.4086 H       1  ZINC000507831344    0.0900
     48 H48        -1.8666    4.0800   45.4633 H       1  ZINC000507831344    0.1000
     49 H49        -0.7271    5.2853   46.1091 H       1  ZINC000507831344    0.0900
     50 H50        -1.4066    5.3286   52.7801 H       1  ZINC000507831344    0.1600
     51 H51        -4.7880    2.7551   55.9742 H       1  ZINC000507831344    0.0700
     52 H52        -3.7285    4.0243   56.6328 H       1  ZINC000507831344    0.0500
     53 H53        -6.7369    3.7904   57.0959 H       1  ZINC000507831344    0.0700
     54 H54        -5.4659    3.3949   58.2787 H       1  ZINC000507831344    0.0700
     55 H55        -6.4043    5.6809   58.6453 H       1  ZINC000507831344    0.0700
     56 H56        -4.6719    5.7305   58.2349 H       1  ZINC000507831344    0.0600
     57 H57        -6.9932    6.1846   56.3034 H       1  ZINC000507831344    0.0700
     58 H58        -5.8986    7.4360   56.9409 H       1  ZINC000507831344    0.0700
     59 H59        -5.1468    8.0051   54.5687 H       1  ZINC000507831344    0.0600
     60 H60        -4.6489    6.6801   53.4895 H       1  ZINC000507831344    0.0500
     61 H61        -6.3422    6.8041   54.0238 H       1  ZINC000507831344    0.0600
@<TRIPOS>BOND
     1     1     2    1
     2     1    33    1
     3     1    34    1
     4     1    35    1
     5     2    24   ar
     6     2     3   ar
     7     3     4   ar
     8     3    36    1
     9     4     5    1
    10     4    22   ar
    11     5     6   am
    12     5    37    1
    13     6     7    2
    14     6     8    1
    15     8     9    1
    16     8    38    1
    17     8    39    1
    18     9    10    1
    19     9    40    1
    20     9    41    1
    21    10    20    1
    22    10    11    2
    23    11    12    1
    24    11    13    1
    25    12    42    1
    26    12    43    1
    27    12    44    1
    28    13    18    1
    29    13    14    1
    30    14    15   am
    31    14    45    1
    32    15    16    2
    33    15    17    1
    34    17    18    2
    35    17    46    1
    36    18    19    1
    37    19    20    2
    38    20    21    1
    39    21    47    1
    40    21    48    1
    41    21    49    1
    42    22    23   ar
    43    22    50    1
    44    23    24   ar
    45    24    25    1
    46    25    30    1
    47    25    26    1
    48    26    27    1
    49    26    51    1
    50    26    52    1
    51    27    28    1
    52    27    53    1
    53    27    54    1
    54    28    29    1
    55    28    55    1
    56    28    56    1
    57    29    30    1
    58    29    57    1
    59    29    58    1
    60    30    31    1
    61    30    32    1
    62    32    59    1
    63    32    60    1
    64    32    61    1
@<TRIPOS>SUBSTRUCTURE
     1 ZINC000507831344        1 TEMP              0 ****  ****    0 ROOT


##########                                Name:    ZINC001122903793
##########                DOCK_Rotatable_Bonds:                   4
##########                         Heavy_Atoms:                  25
##########                    Molecular_Weight:             399.968
##########                DOCK_Rotatable_Bonds:                   4
##########                       Formal_Charge:           0.0100003
##########                     HBond_Acceptors:                   9
##########                        HBond_Donors:                   0
##########                         Heavy_Atoms:                  25
##########                          Grid_Score:          -26.021492
##########                     Grid_vdw_energy:          -24.757038
##########                      Grid_es_energy:           -1.264454
##########           Internal_energy_repulsive:           25.577066

@<TRIPOS>MOLECULE
ZINC001122903793
 47 50 1 0 0
SMALL
USER_CHARGES


@<TRIPOS>ATOM
      1 C1         -6.0545    3.3813   56.4344 C.3     1  ZINC001122903793   -0.1400
      2 C2         -7.0711    2.3201   56.8604 C.3     1  ZINC001122903793   -0.0400
      3 H3         -6.5805    1.3490   56.9266 H       1  ZINC001122903793    0.1000
      4 S4         -8.4197    2.2419   55.6423 S.3     1  ZINC001122903793   -0.2500
      5 C5         -9.6139    1.1505   56.4738 C.3     1  ZINC001122903793   -0.0800
      6 C6         -9.8591    1.6861   57.8885 C.3     1  ZINC001122903793    0.0700
      7 N7         -8.6104    1.6614   58.6535 N.3     1  ZINC001122903793   -0.4800
      8 C8         -8.8592    1.7528   60.0132 C.2     1  ZINC001122903793    0.3700
      9 N9         -9.5491    2.6925   60.6164 N.2     1  ZINC001122903793   -0.2900
     10 N10        -9.5848    2.4724   61.8819 N.2     1  ZINC001122903793   -0.2400
     11 C11        -8.9179    1.3753   62.1652 C.2     1  ZINC001122903793    0.2600
     12 C12        -8.7262    0.7872   63.5010 C.2     1  ZINC001122903793   -0.1600
     13 C13        -9.7068    0.4281   64.3631 C.2     1  ZINC001122903793    0.1600
     14 Cl14      -11.3948    0.6172   64.0044 Cl      1  ZINC001122903793    0.0300
     15 N15        -9.2692   -0.0760   65.4953 N.2     1  ZINC001122903793   -0.4600
     16 C16        -7.9898   -0.1672   65.6482 C.2     1  ZINC001122903793    0.0300
     17 S17        -7.1801    0.4174   64.2608 S.3     1  ZINC001122903793    0.2200
     18 N18        -8.4368    0.8783   60.9747 N.pl3   1  ZINC001122903793   -0.4600
     19 C19        -7.6334   -0.3314   60.7802 C.3     1  ZINC001122903793    0.1100
     20 C20        -8.5507   -1.4987   60.4105 C.3     1  ZINC001122903793    0.0700
     21 H21        -8.0047   -2.4404   60.4658 H       1  ZINC001122903793    0.0800
     22 C22        -9.7813   -1.5345   61.3514 C.3     1  ZINC001122903793   -0.1500
     23 C23       -10.8120   -2.2801   60.4605 C.3     1  ZINC001122903793   -0.1500
     24 C24       -10.4423   -1.7836   59.0461 C.3     1  ZINC001122903793    0.0500
     25 O25        -9.0894   -1.3114   59.0921 O.3     1  ZINC001122903793   -0.3700
     26 C26        -7.6628    2.6922   58.2242 C.3     1  ZINC001122903793    0.1000
     27 H27        -8.1803    3.6479   58.1409 H       1  ZINC001122903793    0.0800
     28 C28        -6.5390    2.8109   59.2556 C.3     1  ZINC001122903793   -0.1500
     29 H29        -5.2513    3.4309   57.1695 H       1  ZINC001122903793    0.0800
     30 H30        -5.6405    3.1178   55.4610 H       1  ZINC001122903793    0.0700
     31 H31        -6.5476    4.3512   56.3690 H       1  ZINC001122903793    0.0700
     32 H32       -10.5513    1.1422   55.9177 H       1  ZINC001122903793    0.1200
     33 H33        -9.2091    0.1400   56.5298 H       1  ZINC001122903793    0.0900
     34 H34       -10.2273    2.7104   57.8293 H       1  ZINC001122903793    0.0700
     35 H35       -10.6020    1.0639   58.3876 H       1  ZINC001122903793    0.0900
     36 H36        -7.5009   -0.5613   66.5267 H       1  ZINC001122903793    0.2100
     37 H37        -6.9151   -0.1652   59.9774 H       1  ZINC001122903793    0.1200
     38 H38        -7.1006   -0.5656   61.7018 H       1  ZINC001122903793    0.1000
     39 H39        -9.5657   -2.0985   62.2588 H       1  ZINC001122903793    0.0900
     40 H40       -10.1235   -0.5272   61.5890 H       1  ZINC001122903793    0.0800
     41 H41       -10.6831   -3.3596   60.5386 H       1  ZINC001122903793    0.0800
     42 H42       -11.8303   -1.9900   60.7195 H       1  ZINC001122903793    0.0900
     43 H43       -10.5219   -2.6046   58.3335 H       1  ZINC001122903793    0.0700
     44 H44       -11.1085   -0.9722   58.7532 H       1  ZINC001122903793    0.0700
     45 H45        -6.0224    1.8548   59.3417 H       1  ZINC001122903793    0.0600
     46 H46        -5.8329    3.5778   58.9370 H       1  ZINC001122903793    0.0800
     47 H47        -6.9608    3.0843   60.2227 H       1  ZINC001122903793    0.0600
@<TRIPOS>BOND
     1     1     2    1
     2     1    29    1
     3     1    30    1
     4     1    31    1
     5     2     3    1
     6     2    26    1
     7     2     4    1
     8     4     5    1
     9     5     6    1
    10     5    32    1
    11     5    33    1
    12     6     7    1
    13     6    34    1
    14     6    35    1
    15     7     8    1
    16     7    26    1
    17     8    18    1
    18     8     9    2
    19     9    10    1
    20    10    11    2
    21    11    12    1
    22    11    18    1
    23    12    17    1
    24    12    13    2
    25    13    14    1
    26    13    15    1
    27    15    16    2
    28    16    17    1
    29    16    36    1
    30    18    19    1
    31    19    20    1
    32    19    37    1
    33    19    38    1
    34    20    21    1
    35    20    25    1
    36    20    22    1
    37    22    23    1
    38    22    39    1
    39    22    40    1
    40    23    24    1
    41    23    41    1
    42    23    42    1
    43    24    25    1
    44    24    43    1
    45    24    44    1
    46    26    27    1
    47    26    28    1
    48    28    45    1
    49    28    46    1
    50    28    47    1
@<TRIPOS>SUBSTRUCTURE
     1 ZINC001122903793        1 TEMP              0 ****  ****    0 ROOT


##########                                Name:    ZINC000461678839
##########                DOCK_Rotatable_Bonds:                   6
##########                         Heavy_Atoms:                  28
##########                    Molecular_Weight:             404.939
##########                DOCK_Rotatable_Bonds:                   6
##########                       Formal_Charge:          -0.0200003
##########                     HBond_Acceptors:                   7
##########                        HBond_Donors:                   0
##########                         Heavy_Atoms:                  28
##########                          Grid_Score:          -25.992531
##########                     Grid_vdw_energy:          -25.704832
##########                      Grid_es_energy:           -0.287699
##########           Internal_energy_repulsive:           10.350708

@<TRIPOS>MOLECULE
ZINC000461678839
 57 60 1 0 0
SMALL
USER_CHARGES


@<TRIPOS>ATOM
      1 C1         -4.6136    3.0077   56.2218 C.3     1  ZINC000461678839   -0.1500
      2 C2         -6.0068    3.4687   56.6549 C.3     1  ZINC000461678839   -0.0900
      3 H3         -6.3442    4.2587   55.9840 H       1  ZINC000461678839    0.0700
      4 C4         -5.9280    4.0281   58.0931 C.3     1  ZINC000461678839   -0.1100
      5 C5         -7.1516    4.8644   58.3577 C.3     1  ZINC000461678839   -0.1200
      6 C6         -8.3036    4.0600   58.9860 C.3     1  ZINC000461678839    0.0600
      7 N7         -8.4892    2.7261   58.3734 N.3     1  ZINC000461678839   -0.4600
      8 C8         -9.6878    2.1577   58.7747 C.2     1  ZINC000461678839    0.3700
      9 N9        -10.8920    2.5962   58.4926 N.2     1  ZINC000461678839   -0.3100
     10 N10       -11.7727    1.8265   59.0254 N.2     1  ZINC000461678839   -0.2500
     11 C11       -11.1876    0.8596   59.6737 C.2     1  ZINC000461678839    0.1700
     12 C12       -11.8709   -0.2487   60.4327 C.3     1  ZINC000461678839    0.1500
     13 O13       -13.2025   -0.4124   59.9406 O.3     1  ZINC000461678839   -0.3100
     14 C14       -13.5184   -1.6215   59.4061 C.ar    1  ZINC000461678839    0.1400
     15 C15       -12.6028   -2.2870   58.6044 C.ar    1  ZINC000461678839   -0.2000
     16 C16       -12.9258   -3.5158   58.0619 C.ar    1  ZINC000461678839   -0.0700
     17 C17       -14.1619   -4.0825   58.3175 C.ar    1  ZINC000461678839   -0.0700
     18 Cl18      -14.5657   -5.6264   57.6343 Cl      1  ZINC000461678839   -0.0700
     19 C19       -15.0764   -3.4204   59.1174 C.ar    1  ZINC000461678839   -0.0700
     20 C20       -14.7549   -2.1942   59.6662 C.ar    1  ZINC000461678839   -0.1400
     21 N21        -9.8386    1.0332   59.5327 N.pl3   1  ZINC000461678839   -0.4600
     22 C22        -8.7757    0.1915   60.0876 C.3     1  ZINC000461678839    0.1200
     23 C23        -8.6885    0.4105   61.5993 C.3     1  ZINC000461678839   -0.1400
     24 H24        -9.6767    0.3326   62.0527 H       1  ZINC000461678839    0.0900
     25 C25        -8.0563    1.7887   61.9116 C.3     1  ZINC000461678839   -0.1500
     26 C26        -7.1367    1.4589   63.1149 C.3     1  ZINC000461678839    0.0500
     27 O27        -6.6279    0.1449   62.7998 O.3     1  ZINC000461678839   -0.3700
     28 C28        -7.7210   -0.6055   62.2366 C.3     1  ZINC000461678839    0.0400
     29 C29        -8.3740    2.7286   56.9349 C.3     1  ZINC000461678839    0.0700
     30 C30        -6.9297    2.3425   56.5662 C.3     1  ZINC000461678839   -0.1100
     31 H31        -4.6574    2.6287   55.2007 H       1  ZINC000461678839    0.0500
     32 H32        -3.9219    3.8489   56.2677 H       1  ZINC000461678839    0.0500
     33 H33        -4.2690    2.2171   56.8884 H       1  ZINC000461678839    0.0600
     34 H34        -5.8891    3.2029   58.8043 H       1  ZINC000461678839    0.0700
     35 H35        -5.0351    4.6445   58.1969 H       1  ZINC000461678839    0.0700
     36 H36        -6.8821    5.6772   59.0322 H       1  ZINC000461678839    0.0800
     37 H37        -7.4948    5.2921   57.4157 H       1  ZINC000461678839    0.0700
     38 H38        -8.1011    3.9313   60.0493 H       1  ZINC000461678839    0.0700
     39 H39        -9.2276    4.6274   58.8748 H       1  ZINC000461678839    0.0500
     40 H40       -11.3167   -1.1773   60.2971 H       1  ZINC000461678839    0.0800
     41 H41       -11.9037    0.0036   61.4926 H       1  ZINC000461678839    0.1000
     42 H42       -11.6381   -1.8447   58.4040 H       1  ZINC000461678839    0.1400
     43 H43       -12.2131   -4.0343   57.4376 H       1  ZINC000461678839    0.1400
     44 H44       -16.0406   -3.8644   59.3161 H       1  ZINC000461678839    0.1400
     45 H45       -15.4690   -1.6776   60.2905 H       1  ZINC000461678839    0.1400
     46 H46        -8.9984   -0.8560   59.8845 H       1  ZINC000461678839    0.1100
     47 H47        -7.8243    0.4567   59.6265 H       1  ZINC000461678839    0.1000
     48 H48        -7.4735    2.1503   61.0644 H       1  ZINC000461678839    0.0800
     49 H49        -8.8209    2.5126   62.1934 H       1  ZINC000461678839    0.0900
     50 H50        -6.3219    2.1796   63.1842 H       1  ZINC000461678839    0.1000
     51 H51        -7.7104    1.4363   64.0415 H       1  ZINC000461678839    0.0600
     52 H52        -8.2302   -1.1645   63.0216 H       1  ZINC000461678839    0.0500
     53 H53        -7.3473   -1.2894   61.4746 H       1  ZINC000461678839    0.1100
     54 H54        -9.0684    2.0041   56.5096 H       1  ZINC000461678839    0.0900
     55 H55        -8.5988    3.7234   56.5502 H       1  ZINC000461678839    0.0600
     56 H56        -6.9175    1.9587   55.5461 H       1  ZINC000461678839    0.0700
     57 H57        -6.5926    1.5552   57.2404 H       1  ZINC000461678839    0.0700
@<TRIPOS>BOND
     1     1     2    1
     2     1    31    1
     3     1    32    1
     4     1    33    1
     5     2     3    1
     6     2    30    1
     7     2     4    1
     8     4     5    1
     9     4    34    1
    10     4    35    1
    11     5     6    1
    12     5    36    1
    13     5    37    1
    14     6     7    1
    15     6    38    1
    16     6    39    1
    17     7     8    1
    18     7    29    1
    19     8    21    1
    20     8     9    2
    21     9    10    1
    22    10    11    2
    23    11    12    1
    24    11    21    1
    25    12    13    1
    26    12    40    1
    27    12    41    1
    28    13    14    1
    29    14    20   ar
    30    14    15   ar
    31    15    16   ar
    32    15    42    1
    33    16    17   ar
    34    16    43    1
    35    17    18    1
    36    17    19   ar
    37    19    20   ar
    38    19    44    1
    39    20    45    1
    40    21    22    1
    41    22    23    1
    42    22    46    1
    43    22    47    1
    44    23    24    1
    45    23    28    1
    46    23    25    1
    47    25    26    1
    48    25    48    1
    49    25    49    1
    50    26    27    1
    51    26    50    1
    52    26    51    1
    53    27    28    1
    54    28    52    1
    55    28    53    1
    56    29    30    1
    57    29    54    1
    58    29    55    1
    59    30    56    1
    60    30    57    1
@<TRIPOS>SUBSTRUCTURE
     1 ZINC000461678839        1 TEMP              0 ****  ****    0 ROOT


##########                                Name:    ZINC000004040798
##########                DOCK_Rotatable_Bonds:                   3
##########                         Heavy_Atoms:                  22
##########                    Molecular_Weight:             361.151
##########                DOCK_Rotatable_Bonds:                   3
##########                       Formal_Charge:           0.0200003
##########                     HBond_Acceptors:                   6
##########                        HBond_Donors:                   1
##########                         Heavy_Atoms:                  22
##########                          Grid_Score:          -25.992331
##########                     Grid_vdw_energy:          -26.408894
##########                      Grid_es_energy:            0.416563
##########           Internal_energy_repulsive:            2.884332

@<TRIPOS>MOLECULE
ZINC000004040798
 31 33 1 0 0
SMALL
USER_CHARGES


@<TRIPOS>ATOM
      1 O1         -2.5499    1.1077   48.6308 O.2     1  ZINC000004040798   -0.4800
      2 C2         -2.3115    2.2794   48.8557 C.2     1  ZINC000004040798    0.6100
      3 N3         -1.5817    2.9988   47.9803 N.am    1  ZINC000004040798   -0.6600
      4 C4         -1.0936    2.3970   46.8161 C.ar    1  ZINC000004040798    0.2300
      5 C5         -1.9765    1.8813   45.8766 C.ar    1  ZINC000004040798   -0.1300
      6 C6         -1.4912    1.2873   44.7277 C.ar    1  ZINC000004040798   -0.0100
      7 C7         -0.1279    1.2057   44.5122 C.ar    1  ZINC000004040798   -0.0600
      8 N8          0.3880    0.5685   43.2798 N.pl3   1  ZINC000004040798    0.0300
      9 O9         -0.3881    0.1167   42.4570 O.2     1  ZINC000004040798   -0.1500
     10 O10         1.5887    0.4959   43.0885 O.2     1  ZINC000004040798   -0.1500
     11 C11         0.7548    1.7186   45.4452 C.ar    1  ZINC000004040798    0.0000
     12 C12         0.2763    2.3187   46.5941 C.ar    1  ZINC000004040798   -0.1400
     13 Br13        1.4837    3.0198   47.8694 Br      1  ZINC000004040798    0.0000
     14 C14        -2.8243    2.9117   50.0789 C.2     1  ZINC000004040798   -0.0500
     15 C15        -2.4804    4.1485   50.5227 C.2     1  ZINC000004040798   -0.0800
     16 C16        -3.2279    4.3565   51.7624 C.ar    1  ZINC000004040798   -0.1500
     17 C17        -3.3140    5.4028   52.6834 C.ar    1  ZINC000004040798   -0.0500
     18 C18        -4.1307    5.2811   53.7724 C.ar    1  ZINC000004040798   -0.1400
     19 C19        -4.8737    4.1252   53.9685 C.ar    1  ZINC000004040798   -0.0700
     20 C20        -4.8028    3.0813   53.0713 C.ar    1  ZINC000004040798   -0.1100
     21 C21        -3.9795    3.1822   51.9560 C.ar    1  ZINC000004040798    0.0800
     22 O22        -3.7125    2.3535   50.9279 O.3     1  ZINC000004040798   -0.1900
     23 H23        -1.3952    3.9340   48.1577 H       1  ZINC000004040798    0.4300
     24 H24        -3.0416    1.9441   46.0442 H       1  ZINC000004040798    0.1800
     25 H25        -2.1776    0.8857   43.9970 H       1  ZINC000004040798    0.1700
     26 H26         1.8192    1.6533   45.2739 H       1  ZINC000004040798    0.1700
     27 H27        -1.7936    4.8385   50.0550 H       1  ZINC000004040798    0.1800
     28 H28        -2.7375    6.3041   52.5359 H       1  ZINC000004040798    0.1400
     29 H29        -4.1982    6.0894   54.4853 H       1  ZINC000004040798    0.1400
     30 H30        -5.5144    4.0428   54.8340 H       1  ZINC000004040798    0.1400
     31 H31        -5.3859    2.1869   53.2343 H       1  ZINC000004040798    0.1400
@<TRIPOS>BOND
     1     1     2    2
     2     2     3   am
     3     2    14    1
     4     3     4    1
     5     3    23    1
     6     4    12   ar
     7     4     5   ar
     8     5     6   ar
     9     5    24    1
    10     6     7   ar
    11     6    25    1
    12     7     8    1
    13     7    11   ar
    14     8     9    2
    15     8    10    2
    16    11    12   ar
    17    11    26    1
    18    12    13    1
    19    14    22    1
    20    14    15    2
    21    15    16    1
    22    15    27    1
    23    16    21   ar
    24    16    17   ar
    25    17    18   ar
    26    17    28    1
    27    18    19   ar
    28    18    29    1
    29    19    20   ar
    30    19    30    1
    31    20    21   ar
    32    20    31    1
    33    21    22    1
@<TRIPOS>SUBSTRUCTURE
     1 ZINC000004040798        1 TEMP              0 ****  ****    0 ROOT


##########                                Name:    ZINC000446721380
##########                DOCK_Rotatable_Bonds:                   8
##########                         Heavy_Atoms:                  26
##########                    Molecular_Weight:             419.318
##########                DOCK_Rotatable_Bonds:                   8
##########                       Formal_Charge:           0.0199992
##########                     HBond_Acceptors:                   5
##########                        HBond_Donors:                   2
##########                         Heavy_Atoms:                  26
##########                          Grid_Score:          -25.981270
##########                     Grid_vdw_energy:          -27.236208
##########                      Grid_es_energy:            1.254939
##########           Internal_energy_repulsive:           11.783922

@<TRIPOS>MOLECULE
ZINC000446721380
 49 51 1 0 0
SMALL
USER_CHARGES


@<TRIPOS>ATOM
      1 C1         -9.3805    0.7671   56.4883 C.3     1  ZINC000446721380   -0.1200
      2 C2         -9.4969    0.0131   57.7879 C.ar    1  ZINC000446721380   -0.0300
      3 C3         -8.3705   -0.2186   58.5552 C.ar    1  ZINC000446721380   -0.1600
      4 C4         -8.4739   -0.9102   59.7482 C.ar    1  ZINC000446721380   -0.0500
      5 C5         -9.7036   -1.3712   60.1763 C.ar    1  ZINC000446721380   -0.1500
      6 C6         -9.8157   -2.1243   61.4768 C.3     1  ZINC000446721380    0.1900
      7 N7         -9.9828   -1.1737   62.5787 N.am    1  ZINC000446721380   -0.7300
      8 C8         -8.9054   -0.7346   63.2591 C.2     1  ZINC000446721380    0.7100
      9 O9         -7.7946   -1.1263   62.9574 O.2     1  ZINC000446721380   -0.5700
     10 N10        -9.0593    0.1388   64.2740 N.am    1  ZINC000446721380   -0.6900
     11 C11        -7.9402    0.5948   64.9808 C.ar    1  ZINC000446721380    0.2000
     12 C12        -7.5599   -0.0310   66.1600 C.ar    1  ZINC000446721380   -0.1200
     13 C13        -6.4547    0.4211   66.8550 C.ar    1  ZINC000446721380   -0.0800
     14 C14        -5.7275    1.4956   66.3776 C.ar    1  ZINC000446721380   -0.1300
     15 C15        -6.1036    2.1220   65.2033 C.ar    1  ZINC000446721380   -0.0700
     16 C16        -7.2044    1.6714   64.5004 C.ar    1  ZINC000446721380   -0.1300
     17 Br17       -7.7178    2.5277   62.8945 Br      1  ZINC000446721380   -0.0500
     18 C18       -10.8357   -1.1398   59.4080 C.ar    1  ZINC000446721380    0.1500
     19 O19       -12.0467   -1.5920   59.8272 O.3     1  ZINC000446721380   -0.3100
     20 C20       -13.0780   -1.6920   58.8431 C.3     1  ZINC000446721380    0.0700
     21 C21       -14.2133   -2.5654   59.3810 C.3     1  ZINC000446721380   -0.1200
     22 H22       -13.8777   -3.5957   59.4986 H       1  ZINC000446721380    0.1000
     23 C23       -15.4404   -2.4992   58.4394 C.3     1  ZINC000446721380   -0.1500
     24 C24       -16.6184   -2.4406   59.4451 C.3     1  ZINC000446721380    0.0500
     25 O25       -16.1044   -1.6235   60.5187 O.3     1  ZINC000446721380   -0.3800
     26 C26       -14.7317   -2.0105   60.7219 C.3     1  ZINC000446721380    0.0500
     27 C27       -10.7301   -0.4411   58.2144 C.ar    1  ZINC000446721380   -0.2100
     28 H28        -9.5056    1.8337   56.6746 H       1  ZINC000446721380    0.0800
     29 H29        -8.3985    0.5873   56.0506 H       1  ZINC000446721380    0.0700
     30 H30       -10.1533    0.4254   55.7996 H       1  ZINC000446721380    0.0700
     31 H31        -7.4080    0.1407   58.2220 H       1  ZINC000446721380    0.1300
     32 H32        -7.5924   -1.0902   60.3456 H       1  ZINC000446721380    0.1300
     33 H33       -10.6776   -2.7904   61.4377 H       1  ZINC000446721380    0.0800
     34 H34        -8.9106   -2.7103   61.6364 H       1  ZINC000446721380    0.0800
     35 H35       -10.8688   -0.8601   62.8187 H       1  ZINC000446721380    0.4000
     36 H36        -9.9454    0.4514   64.5148 H       1  ZINC000446721380    0.4100
     37 H37        -8.1275   -0.8702   66.5340 H       1  ZINC000446721380    0.1500
     38 H38        -6.1587   -0.0653   67.7728 H       1  ZINC000446721380    0.1300
     39 H39        -4.8641    1.8469   66.9229 H       1  ZINC000446721380    0.1300
     40 H40        -5.5339    2.9616   64.8333 H       1  ZINC000446721380    0.1400
     41 H41       -13.4613   -0.6971   58.6161 H       1  ZINC000446721380    0.0700
     42 H42       -12.6726   -2.1408   57.9362 H       1  ZINC000446721380    0.0700
     43 H43       -15.4100   -1.6006   57.8232 H       1  ZINC000446721380    0.0800
     44 H44       -15.5031   -3.3930   57.8187 H       1  ZINC000446721380    0.0900
     45 H45       -17.4897   -1.9710   58.9887 H       1  ZINC000446721380    0.1000
     46 H46       -16.8645   -3.4390   59.8066 H       1  ZINC000446721380    0.0600
     47 H47       -14.6736   -2.7797   61.4920 H       1  ZINC000446721380    0.0600
     48 H48       -14.1417   -1.1427   61.0167 H       1  ZINC000446721380    0.0900
     49 H49       -11.6098   -0.2598   57.6147 H       1  ZINC000446721380    0.1300
@<TRIPOS>BOND
     1     1     2    1
     2     1    28    1
     3     1    29    1
     4     1    30    1
     5     2    27   ar
     6     2     3   ar
     7     3     4   ar
     8     3    31    1
     9     4     5   ar
    10     4    32    1
    11     5     6    1
    12     5    18   ar
    13     6     7    1
    14     6    33    1
    15     6    34    1
    16     7     8   am
    17     7    35    1
    18     8     9    2
    19     8    10   am
    20    10    11    1
    21    10    36    1
    22    11    16   ar
    23    11    12   ar
    24    12    13   ar
    25    12    37    1
    26    13    14   ar
    27    13    38    1
    28    14    15   ar
    29    14    39    1
    30    15    16   ar
    31    15    40    1
    32    16    17    1
    33    18    19    1
    34    18    27   ar
    35    19    20    1
    36    20    21    1
    37    20    41    1
    38    20    42    1
    39    21    22    1
    40    21    26    1
    41    21    23    1
    42    23    24    1
    43    23    43    1
    44    23    44    1
    45    24    25    1
    46    24    45    1
    47    24    46    1
    48    25    26    1
    49    26    47    1
    50    26    48    1
    51    27    49    1
@<TRIPOS>SUBSTRUCTURE
     1 ZINC000446721380        1 TEMP              0 ****  ****    0 ROOT


##########                                Name:    ZINC000011498449
##########                DOCK_Rotatable_Bonds:                   5
##########                         Heavy_Atoms:                  21
##########                    Molecular_Weight:             331.198
##########                DOCK_Rotatable_Bonds:                   5
##########                       Formal_Charge:         1.30385e-07
##########                     HBond_Acceptors:                   7
##########                        HBond_Donors:                   1
##########                         Heavy_Atoms:                  21
##########                          Grid_Score:          -25.976591
##########                     Grid_vdw_energy:          -23.870516
##########                      Grid_es_energy:           -2.106076
##########           Internal_energy_repulsive:            9.782262

@<TRIPOS>MOLECULE
ZINC000011498449
 37 38 1 0 0
SMALL
USER_CHARGES


@<TRIPOS>ATOM
      1 C1         -4.6498    2.3304   66.8317 C.3     1  ZINC000011498449   -0.1500
      2 C2         -5.5788    1.1558   66.5185 C.3     1  ZINC000011498449    0.0700
      3 H3         -4.9848    0.2598   66.3383 H       1  ZINC000011498449    0.0600
      4 C4         -6.4097    1.4786   65.2713 C.3     1  ZINC000011498449    0.0800
      5 N5         -7.4207    0.4230   65.1011 N.am    1  ZINC000011498449   -0.6100
      6 C6         -7.5773   -0.2034   63.9182 C.2     1  ZINC000011498449    0.5100
      7 O7         -8.4171   -1.0700   63.7973 O.2     1  ZINC000011498449   -0.5300
      8 C8         -6.7088    0.1731   62.7455 C.3     1  ZINC000011498449    0.1000
      9 N9         -7.3403   -0.2818   61.5043 N.am    1  ZINC000011498449   -0.7200
     10 C10        -8.3492    0.4284   60.9618 C.2     1  ZINC000011498449    0.5600
     11 O11        -8.7343    1.4473   61.5016 O.2     1  ZINC000011498449   -0.5100
     12 C12        -8.9870   -0.0313   59.7113 C.ar    1  ZINC000011498449   -0.1300
     13 C13        -9.9528   -1.0390   59.7461 C.ar    1  ZINC000011498449   -0.0600
     14 C14       -10.5450   -1.4635   58.5757 C.ar    1  ZINC000011498449   -0.1100
     15 C15       -10.1842   -0.8929   57.3660 C.ar    1  ZINC000011498449    0.0000
     16 Cl16      -10.9354   -1.4333   55.8973 Cl      1  ZINC000011498449   -0.0400
     17 C17        -9.2272    0.1069   57.3234 C.ar    1  ZINC000011498449   -0.1100
     18 C18        -8.6304    0.5448   58.4888 C.ar    1  ZINC000011498449    0.0300
     19 Cl19       -7.4308    1.7984   58.4343 Cl      1  ZINC000011498449   -0.0100
     20 C20        -8.2552    0.0710   66.2610 C.3     1  ZINC000011498449    0.0700
     21 C21        -7.3344   -0.1832   67.4598 C.3     1  ZINC000011498449    0.0500
     22 O22        -6.4561    0.9326   67.6250 O.3     1  ZINC000011498449   -0.3700
     23 H23        -4.0606    2.1010   67.7196 H       1  ZINC000011498449    0.0700
     24 H24        -3.9825    2.5011   65.9870 H       1  ZINC000011498449    0.0800
     25 H25        -5.2444    3.2260   67.0117 H       1  ZINC000011498449    0.0700
     26 H26        -6.9030    2.4423   65.3982 H       1  ZINC000011498449    0.0800
     27 H27        -5.7609    1.5102   64.3960 H       1  ZINC000011498449    0.1000
     28 H28        -6.5878    1.2560   62.7158 H       1  ZINC000011498449    0.1000
     29 H29        -5.7320   -0.2990   62.8504 H       1  ZINC000011498449    0.1000
     30 H30        -7.0323   -1.0942   61.0729 H       1  ZINC000011498449    0.4100
     31 H31       -10.2352   -1.4854   60.6881 H       1  ZINC000011498449    0.1500
     32 H32       -11.2918   -2.2432   58.6019 H       1  ZINC000011498449    0.1500
     33 H33        -8.9501    0.5479   56.3772 H       1  ZINC000011498449    0.1500
     34 H34        -8.9343    0.8930   66.4875 H       1  ZINC000011498449    0.0900
     35 H35        -8.8286   -0.8295   66.0409 H       1  ZINC000011498449    0.1000
     36 H36        -7.9355   -0.3097   68.3603 H       1  ZINC000011498449    0.1100
     37 H37        -6.7475   -1.0846   67.2834 H       1  ZINC000011498449    0.0600
@<TRIPOS>BOND
     1     1     2    1
     2     1    23    1
     3     1    24    1
     4     1    25    1
     5     2     3    1
     6     2    22    1
     7     2     4    1
     8     4     5    1
     9     4    26    1
    10     4    27    1
    11     5     6   am
    12     5    20    1
    13     6     7    2
    14     6     8    1
    15     8     9    1
    16     8    28    1
    17     8    29    1
    18     9    10   am
    19     9    30    1
    20    10    11    2
    21    10    12    1
    22    12    18   ar
    23    12    13   ar
    24    13    14   ar
    25    13    31    1
    26    14    15   ar
    27    14    32    1
    28    15    16    1
    29    15    17   ar
    30    17    18   ar
    31    17    33    1
    32    18    19    1
    33    20    21    1
    34    20    34    1
    35    20    35    1
    36    21    22    1
    37    21    36    1
    38    21    37    1
@<TRIPOS>SUBSTRUCTURE
     1 ZINC000011498449        1 TEMP              0 ****  ****    0 ROOT


##########                                Name:    ZINC000826324849
##########                DOCK_Rotatable_Bonds:                   4
##########                         Heavy_Atoms:                  27
##########                    Molecular_Weight:             395.374
##########                DOCK_Rotatable_Bonds:                   4
##########                       Formal_Charge:           0.0400001
##########                     HBond_Acceptors:                  13
##########                        HBond_Donors:                   1
##########                         Heavy_Atoms:                  27
##########                          Grid_Score:          -25.918379
##########                     Grid_vdw_energy:          -25.496046
##########                      Grid_es_energy:           -0.422333
##########           Internal_energy_repulsive:          102.181511

@<TRIPOS>MOLECULE
ZINC000826324849
 41 44 1 0 0
SMALL
USER_CHARGES


@<TRIPOS>ATOM
      1 C1          0.4263   -2.4161   48.6661 C.3     1  ZINC000826324849   -0.0600
      2 C2          0.9167   -1.0818   48.1658 C.2     1  ZINC000826324849    0.2000
      3 N3          0.1848   -0.1245   47.6487 N.2     1  ZINC000826324849   -0.4600
      4 C4          1.0435    0.8664   47.3494 C.2     1  ZINC000826324849    0.1600
      5 C5          0.6921    2.1942   46.7295 C.3     1  ZINC000826324849    0.2200
      6 H6          1.6005    2.6942   46.3932 H       1  ZINC000826324849    0.1300
      7 C7         -0.2479    1.9754   45.5385 C.3     1  ZINC000826324849    0.0600
      8 O8         -0.7222    3.2416   45.0743 O.3     1  ZINC000826324849   -0.3600
      9 C9         -1.4964    3.9644   46.0345 C.3     1  ZINC000826324849    0.0400
     10 C10        -0.6203    4.2852   47.2508 C.3     1  ZINC000826324849    0.0800
     11 N11         0.0007    3.0357   47.7190 N.am    1  ZINC000826324849   -1.0100
     12 S12        -0.0780    2.5892   49.3118 S.o2    1  ZINC000826324849    2.7100
     13 O13        -1.4534    2.6139   49.6679 O.2     1  ZINC000826324849   -0.9300
     14 O14         0.7390    1.4343   49.4455 O.2     1  ZINC000826324849   -0.9300
     15 C15         0.7016    3.8614   50.2491 C.ar    1  ZINC000826324849   -0.5800
     16 C16         2.0764    3.9819   50.2412 C.ar    1  ZINC000826324849   -0.0400
     17 C17         2.6911    4.9798   50.9763 C.ar    1  ZINC000826324849   -0.0800
     18 C18         1.9333    5.8622   51.7235 C.ar    1  ZINC000826324849   -0.1100
     19 C19         0.5549    5.7514   51.7392 C.ar    1  ZINC000826324849    0.1300
     20 F20        -0.1855    6.6140   52.4691 F       1  ZINC000826324849   -0.1100
     21 C21        -0.0692    4.7504   50.9946 C.ar    1  ZINC000826324849    0.0500
     22 C22        -1.5483    4.6257   51.0062 C.2     1  ZINC000826324849    0.1800
     23 N23        -2.2714    3.9088   51.8433 N.2     1  ZINC000826324849   -0.2600
     24 N24        -3.5109    4.0634   51.5259 N.pl3   1  ZINC000826324849   -0.2200
     25 N25        -3.5959    4.8553   50.5147 N.2     1  ZINC000826324849   -0.0200
     26 N26        -2.4089    5.2250   50.1712 N.2     1  ZINC000826324849   -0.2600
     27 N27         2.2318    0.4687   47.6935 N.2     1  ZINC000826324849   -0.3800
     28 O28         2.1801   -0.6456   48.1700 O.3     1  ZINC000826324849    0.0900
     29 H29         1.2694   -2.9950   49.0430 H       1  ZINC000826324849    0.1000
     30 H30        -0.2952   -2.2605   49.4681 H       1  ZINC000826324849    0.1100
     31 H31        -0.0499   -2.9577   47.8489 H       1  ZINC000826324849    0.1100
     32 H32         0.2920    1.4724   44.7363 H       1  ZINC000826324849    0.1200
     33 H33        -1.0932    1.3618   45.8498 H       1  ZINC000826324849    0.0600
     34 H34        -1.8547    4.8925   45.5890 H       1  ZINC000826324849    0.1200
     35 H35        -2.3463    3.3581   46.3477 H       1  ZINC000826324849    0.0600
     36 H36         0.1556    4.9962   46.9672 H       1  ZINC000826324849    0.0900
     37 H37        -1.2352    4.7093   48.0446 H       1  ZINC000826324849    0.1100
     38 H38         2.6739    3.2951   49.6600 H       1  ZINC000826324849    0.1400
     39 H39         3.7673    5.0697   50.9666 H       1  ZINC000826324849    0.1500
     40 H40         2.4185    6.6389   52.2961 H       1  ZINC000826324849    0.1500
     41 H41        -4.2618    3.6478   51.9778 H       1  ZINC000826324849    0.4800
@<TRIPOS>BOND
     1     1     2    1
     2     1    29    1
     3     1    30    1
     4     1    31    1
     5     2    28    1
     6     2     3    2
     7     3     4    1
     8     4     5    1
     9     4    27    2
    10     5     6    1
    11     5    11    1
    12     5     7    1
    13     7     8    1
    14     7    32    1
    15     7    33    1
    16     8     9    1
    17     9    10    1
    18     9    34    1
    19     9    35    1
    20    10    11    1
    21    10    36    1
    22    10    37    1
    23    11    12   am
    24    12    13    2
    25    12    14    2
    26    12    15    1
    27    15    21   ar
    28    15    16   ar
    29    16    17   ar
    30    16    38    1
    31    17    18   ar
    32    17    39    1
    33    18    19   ar
    34    18    40    1
    35    19    20    1
    36    19    21   ar
    37    21    22    1
    38    22    26    1
    39    22    23    2
    40    23    24    1
    41    24    25    1
    42    24    41    1
    43    25    26    2
    44    27    28    1
@<TRIPOS>SUBSTRUCTURE
     1 ZINC000826324849        1 TEMP              0 ****  ****    0 ROOT


##########                                Name:    ZINC000822449555
##########                DOCK_Rotatable_Bonds:                   5
##########                         Heavy_Atoms:                  27
##########                    Molecular_Weight:             366.383
##########                DOCK_Rotatable_Bonds:                   5
##########                       Formal_Charge:          -0.0100009
##########                     HBond_Acceptors:                  10
##########                        HBond_Donors:                   2
##########                         Heavy_Atoms:                  27
##########                          Grid_Score:          -25.916899
##########                     Grid_vdw_energy:          -25.459900
##########                      Grid_es_energy:           -0.456999
##########           Internal_energy_repulsive:            7.581464

@<TRIPOS>MOLECULE
ZINC000822449555
 45 48 1 0 0
SMALL
USER_CHARGES


@<TRIPOS>ATOM
      1 C1         -1.5012    3.1314   45.8969 C.3     1  ZINC000822449555   -0.1100
      2 C2         -0.2947    2.2621   46.1417 C.ar    1  ZINC000822449555    0.1400
      3 N3          0.6303    2.1524   45.2075 N.ar    1  ZINC000822449555   -0.5000
      4 C4          1.7062    1.4004   45.3790 C.ar    1  ZINC000822449555    0.3000
      5 N5          2.6555    1.3156   44.3642 N.3     1  ZINC000822449555   -0.4700
      6 C6          3.4414    2.5547   44.2730 C.3     1  ZINC000822449555    0.0200
      7 C7          4.5097    2.3965   43.1879 C.3     1  ZINC000822449555    0.0600
      8 O8          3.8777    2.0639   41.9488 O.3     1  ZINC000822449555   -0.3800
      9 C9          3.1043    0.8620   42.0013 C.3     1  ZINC000822449555    0.0600
     10 C10         2.0218    1.0046   43.0746 C.3     1  ZINC000822449555    0.0300
     11 C11         1.8991    0.6944   46.5616 C.ar    1  ZINC000822449555   -0.1700
     12 C12         0.9502    0.7854   47.5634 C.ar    1  ZINC000822449555   -0.0500
     13 C13        -0.1669    1.5911   47.3487 C.ar    1  ZINC000822449555    0.0600
     14 N14        -1.1537    1.7130   48.3358 N.am    1  ZINC000822449555   -0.6600
     15 C15        -1.1011    2.7294   49.2194 C.2     1  ZINC000822449555    0.5700
     16 O16        -0.1971    3.5404   49.1600 O.2     1  ZINC000822449555   -0.5100
     17 C17        -2.1413    2.8578   50.2599 C.ar    1  ZINC000822449555   -0.1800
     18 C18        -2.0262    3.8291   51.2637 C.ar    1  ZINC000822449555   -0.0100
     19 C19        -3.0239    3.9113   52.2151 C.ar    1  ZINC000822449555   -0.1300
     20 C20        -4.1040    3.0325   52.1463 C.ar    1  ZINC000822449555    0.2300
     21 C21        -5.1798    3.1140   53.1642 C.2     1  ZINC000822449555    0.2100
     22 N22        -6.2558    2.3548   53.2359 N.2     1  ZINC000822449555   -0.2500
     23 N23        -6.9409    2.7376   54.2579 N.pl3   1  ZINC000822449555   -0.2200
     24 N24        -6.3341    3.7147   54.8360 N.2     1  ZINC000822449555   -0.0400
     25 N25        -5.2449    3.9703   54.1941 N.2     1  ZINC000822449555   -0.2500
     26 N26        -4.1826    2.1239   51.1815 N.ar    1  ZINC000822449555   -0.4500
     27 C27        -3.2565    2.0168   50.2541 C.ar    1  ZINC000822449555    0.1400
     28 H28        -1.2915    4.1470   46.2329 H       1  ZINC000822449555    0.0800
     29 H29        -1.7316    3.1415   44.8316 H       1  ZINC000822449555    0.0800
     30 H30        -2.3530    2.7347   46.4492 H       1  ZINC000822449555    0.0700
     31 H31         2.7833    3.3852   44.0176 H       1  ZINC000822449555    0.0600
     32 H32         3.9223    2.7519   45.2311 H       1  ZINC000822449555    0.1000
     33 H33         5.0575    3.3323   43.0773 H       1  ZINC000822449555    0.1100
     34 H34         5.1997    1.6011   43.4696 H       1  ZINC000822449555    0.0600
     35 H35         2.6359    0.6880   41.0327 H       1  ZINC000822449555    0.1000
     36 H36         3.7534    0.0220   42.2486 H       1  ZINC000822449555    0.0600
     37 H37         1.4664    0.0705   43.1578 H       1  ZINC000822449555    0.1000
     38 H38         1.3410    1.8104   42.7999 H       1  ZINC000822449555    0.0600
     39 H39         2.7789    0.0825   46.6958 H       1  ZINC000822449555    0.1400
     40 H40         1.0736    0.2480   48.4921 H       1  ZINC000822449555    0.1500
     41 H41        -1.8748    1.0659   48.3832 H       1  ZINC000822449555    0.4100
     42 H42        -1.1778    4.4967   51.2927 H       1  ZINC000822449555    0.1600
     43 H43        -2.9678    4.6475   53.0033 H       1  ZINC000822449555    0.1600
     44 H44        -7.7821    2.3503   54.5464 H       1  ZINC000822449555    0.4800
     45 H45        -3.3551    1.2653   49.4847 H       1  ZINC000822449555    0.1700
@<TRIPOS>BOND
     1     1     2    1
     2     1    28    1
     3     1    29    1
     4     1    30    1
     5     2    13   ar
     6     2     3   ar
     7     3     4   ar
     8     4     5    1
     9     4    11   ar
    10     5    10    1
    11     5     6    1
    12     6     7    1
    13     6    31    1
    14     6    32    1
    15     7     8    1
    16     7    33    1
    17     7    34    1
    18     8     9    1
    19     9    10    1
    20     9    35    1
    21     9    36    1
    22    10    37    1
    23    10    38    1
    24    11    12   ar
    25    11    39    1
    26    12    13   ar
    27    12    40    1
    28    13    14    1
    29    14    15   am
    30    14    41    1
    31    15    16    2
    32    15    17    1
    33    17    27   ar
    34    17    18   ar
    35    18    19   ar
    36    18    42    1
    37    19    20   ar
    38    19    43    1
    39    20    21    1
    40    20    26   ar
    41    21    25    1
    42    21    22    2
    43    22    23    1
    44    23    24    1
    45    23    44    1
    46    24    25    2
    47    26    27   ar
    48    27    45    1
@<TRIPOS>SUBSTRUCTURE
     1 ZINC000822449555        1 TEMP              0 ****  ****    0 ROOT


##########                                Name:    ZINC000535362552
##########                DOCK_Rotatable_Bonds:                   5
##########                         Heavy_Atoms:                  26
##########                    Molecular_Weight:             416.228
##########                DOCK_Rotatable_Bonds:                   5
##########                       Formal_Charge:         -0.00999981
##########                     HBond_Acceptors:                   6
##########                        HBond_Donors:                   1
##########                         Heavy_Atoms:                  26
##########                          Grid_Score:          -25.882645
##########                     Grid_vdw_energy:          -24.372381
##########                      Grid_es_energy:           -1.510263
##########           Internal_energy_repulsive:           18.366749

@<TRIPOS>MOLECULE
ZINC000535362552
 40 43 1 0 0
SMALL
USER_CHARGES


@<TRIPOS>ATOM
      1 C1         -5.4194    2.2676   64.2106 C.3     1  ZINC000535362552    0.0300
      2 O2         -5.9952    1.4183   65.2378 O.3     1  ZINC000535362552   -0.3400
      3 C3         -6.9669    0.5656   64.8537 C.2     1  ZINC000535362552    0.5500
      4 O4         -7.3740   -0.2801   65.6265 O.2     1  ZINC000535362552   -0.4800
      5 C5         -7.5330    0.6585   63.5024 C.2     1  ZINC000535362552   -0.0100
      6 C6         -8.7085    0.1027   63.1070 C.2     1  ZINC000535362552   -0.0900
      7 C7         -8.8667    0.4509   61.6956 C.ar    1  ZINC000535362552   -0.1300
      8 C8         -9.8435    0.1864   60.7330 C.ar    1  ZINC000535362552   -0.0600
      9 C9         -9.6865    0.6767   59.4502 C.ar    1  ZINC000535362552    0.1200
     10 N10       -10.6617    0.4166   58.4783 N.am    1  ZINC000535362552   -0.6700
     11 C11       -10.7044   -0.7862   57.8716 C.2     1  ZINC000535362552    0.5200
     12 O12        -9.8987   -1.6434   58.1670 O.2     1  ZINC000535362552   -0.5000
     13 C13       -11.7532   -1.0660   56.8264 C.3     1  ZINC000535362552   -0.1000
     14 H14       -12.2215   -0.1410   56.4898 H       1  ZINC000535362552    0.1300
     15 C15       -11.1511   -1.8463   55.6339 C.3     1  ZINC000535362552    0.0600
     16 O16       -12.2190   -2.7343   55.2627 O.3     1  ZINC000535362552   -0.2900
     17 C17       -12.9857   -2.9959   56.3570 C.ar    1  ZINC000535362552    0.1300
     18 C18       -13.8836   -4.0341   56.5906 C.ar    1  ZINC000535362552   -0.1300
     19 C19       -14.5711   -4.1031   57.7848 C.ar    1  ZINC000535362552   -0.0500
     20 C20       -14.3754   -3.1420   58.7602 C.ar    1  ZINC000535362552   -0.1200
     21 Br21      -15.3249   -3.2394   60.3927 Br      1  ZINC000535362552   -0.0400
     22 C22       -13.4812   -2.1087   58.5369 C.ar    1  ZINC000535362552   -0.0100
     23 C23       -12.7915   -2.0405   57.3477 C.ar    1  ZINC000535362552   -0.1600
     24 C24        -8.5606    1.4297   59.1213 C.ar    1  ZINC000535362552   -0.0900
     25 C25        -7.5924    1.6947   60.0641 C.ar    1  ZINC000535362552   -0.0900
     26 C26        -7.7308    1.2117   61.3601 C.ar    1  ZINC000535362552    0.0700
     27 O27        -6.9678    1.3138   62.4669 O.3     1  ZINC000535362552   -0.1700
     28 H28        -6.2003    2.8909   63.7747 H       1  ZINC000535362552    0.0700
     29 H29        -4.6520    2.9030   64.6526 H       1  ZINC000535362552    0.1100
     30 H30        -4.9739    1.6468   63.4334 H       1  ZINC000535362552    0.0700
     31 H31        -9.3878   -0.4791   63.7124 H       1  ZINC000535362552    0.1800
     32 H32       -10.7152   -0.3975   60.9891 H       1  ZINC000535362552    0.1400
     33 H33       -11.3061    1.1021   58.2422 H       1  ZINC000535362552    0.4100
     34 H34       -10.9077   -1.1710   54.8137 H       1  ZINC000535362552    0.1200
     35 H35       -10.2713   -2.4094   55.9457 H       1  ZINC000535362552    0.0900
     36 H36       -14.0424   -4.7885   55.8342 H       1  ZINC000535362552    0.1400
     37 H37       -15.2660   -4.9114   57.9589 H       1  ZINC000535362552    0.1400
     38 H38       -13.3250   -1.3560   59.2955 H       1  ZINC000535362552    0.1400
     39 H39        -8.4461    1.8088   58.1164 H       1  ZINC000535362552    0.1500
     40 H40        -6.7245    2.2789   59.7963 H       1  ZINC000535362552    0.1500
@<TRIPOS>BOND
     1     1     2    1
     2     1    28    1
     3     1    29    1
     4     1    30    1
     5     2     3    1
     6     3     4    2
     7     3     5    1
     8     5    27    1
     9     5     6    2
    10     6     7    1
    11     6    31    1
    12     7    26   ar
    13     7     8   ar
    14     8     9   ar
    15     8    32    1
    16     9    10    1
    17     9    24   ar
    18    10    11   am
    19    10    33    1
    20    11    12    2
    21    11    13    1
    22    13    14    1
    23    13    23    1
    24    13    15    1
    25    15    16    1
    26    15    34    1
    27    15    35    1
    28    16    17    1
    29    17    23   ar
    30    17    18   ar
    31    18    19   ar
    32    18    36    1
    33    19    20   ar
    34    19    37    1
    35    20    21    1
    36    20    22   ar
    37    22    23   ar
    38    22    38    1
    39    24    25   ar
    40    24    39    1
    41    25    26   ar
    42    25    40    1
    43    26    27    1
@<TRIPOS>SUBSTRUCTURE
     1 ZINC000535362552        1 TEMP              0 ****  ****    0 ROOT


##########                                Name:    ZINC000951315041
##########                DOCK_Rotatable_Bonds:                   5
##########                         Heavy_Atoms:                  25
##########                    Molecular_Weight:             340.382
##########                DOCK_Rotatable_Bonds:                   5
##########                       Formal_Charge:          0.00999974
##########                     HBond_Acceptors:                   7
##########                        HBond_Donors:                   1
##########                         Heavy_Atoms:                  25
##########                          Grid_Score:          -25.855057
##########                     Grid_vdw_energy:          -23.733290
##########                      Grid_es_energy:           -2.121767
##########           Internal_energy_repulsive:            9.999181

@<TRIPOS>MOLECULE
ZINC000951315041
 45 47 1 0 0
SMALL
USER_CHARGES


@<TRIPOS>ATOM
      1 C1         -5.1341    1.2198   66.1940 C.3     1  ZINC000951315041    0.0500
      2 N2         -6.3708    1.6126   65.5140 N.am    1  ZINC000951315041   -0.4900
      3 C3         -7.0924    0.6820   64.8620 C.2     1  ZINC000951315041    0.1700
      4 C4         -8.2602    1.0296   64.2142 C.2     1  ZINC000951315041   -0.2400
      5 C5         -9.0472    0.0065   63.5012 C.2     1  ZINC000951315041    0.5800
      6 O6        -10.0244   -0.4871   64.0306 O.2     1  ZINC000951315041   -0.5200
      7 N7         -8.6835   -0.3814   62.2628 N.am    1  ZINC000951315041   -0.6000
      8 C8         -7.5055    0.2057   61.6101 C.3     1  ZINC000951315041    0.1100
      9 C9         -7.9205    0.7478   60.2387 C.3     1  ZINC000951315041   -0.1300
     10 C10        -8.5930   -0.3682   59.4358 C.3     1  ZINC000951315041   -0.1300
     11 C11        -9.8506   -0.8400   60.1695 C.3     1  ZINC000951315041    0.1300
     12 H12       -10.5316    0.0006   60.3016 H       1  ZINC000951315041    0.1000
     13 N13       -10.5111   -1.8858   59.3845 N.am    1  ZINC000951315041   -0.7200
     14 C14       -11.8334   -1.8076   59.1355 C.2     1  ZINC000951315041    0.5700
     15 O15       -12.4780   -0.8702   59.5634 O.2     1  ZINC000951315041   -0.5200
     16 C16       -12.4998   -2.8620   58.3418 C.ar    1  ZINC000951315041   -0.1900
     17 C17       -13.7442   -2.6252   57.7461 C.ar    1  ZINC000951315041   -0.0100
     18 C18       -14.3253   -3.6451   57.0131 C.ar    1  ZINC000951315041   -0.1800
     19 C19       -13.6643   -4.8541   56.8933 C.ar    1  ZINC000951315041    0.1300
     20 N20       -12.4918   -5.0491   57.4663 N.ar    1  ZINC000951315041   -0.4900
     21 C21       -11.8960   -4.1083   58.1688 C.ar    1  ZINC000951315041    0.1400
     22 C22        -9.4540   -1.4042   61.5423 C.3     1  ZINC000951315041    0.1000
     23 C23        -8.6973    2.3762   64.2400 C.2     1  ZINC000951315041    0.0100
     24 C24        -7.9521    3.2986   64.9054 C.2     1  ZINC000951315041   -0.2300
     25 C25        -6.7704    2.8965   65.5558 C.2     1  ZINC000951315041    0.5100
     26 O26        -6.0988    3.7201   66.1544 O.2     1  ZINC000951315041   -0.5400
     27 H27        -4.6875    2.0934   66.6690 H       1  ZINC000951315041    0.1100
     28 H28        -5.3587    0.4693   66.9519 H       1  ZINC000951315041    0.0800
     29 H29        -4.4359    0.8047   65.4672 H       1  ZINC000951315041    0.0800
     30 H30        -6.7547   -0.3437   64.8453 H       1  ZINC000951315041    0.1700
     31 H31        -7.1162    1.0194   62.2220 H       1  ZINC000951315041    0.1000
     32 H32        -6.7386   -0.5585   61.4841 H       1  ZINC000951315041    0.0700
     33 H33        -8.6197    1.5734   60.3703 H       1  ZINC000951315041    0.0700
     34 H34        -7.0381    1.0994   59.7042 H       1  ZINC000951315041    0.0900
     35 H35        -8.8673    0.0082   58.4503 H       1  ZINC000951315041    0.0800
     36 H36        -7.9017   -1.2038   59.3258 H       1  ZINC000951315041    0.0700
     37 H37        -9.9970   -2.6345   59.0439 H       1  ZINC000951315041    0.4000
     38 H38       -14.2384   -1.6711   57.8562 H       1  ZINC000951315041    0.1500
     39 H39       -15.2849   -3.4986   56.5397 H       1  ZINC000951315041    0.1500
     40 H40       -14.1155   -5.6518   56.3218 H       1  ZINC000951315041    0.1600
     41 H41       -10.9359   -4.3058   58.6225 H       1  ZINC000951315041    0.1600
     42 H42        -8.8471   -2.2995   61.4081 H       1  ZINC000951315041    0.0700
     43 H43       -10.3518   -1.6504   62.1093 H       1  ZINC000951315041    0.0900
     44 H44        -9.6086    2.6663   63.7382 H       1  ZINC000951315041    0.1400
     45 H45        -8.2665    4.3314   64.9375 H       1  ZINC000951315041    0.1600
@<TRIPOS>BOND
     1     1     2    1
     2     1    27    1
     3     1    28    1
     4     1    29    1
     5     2    25   am
     6     2     3    1
     7     3     4    2
     8     3    30    1
     9     4     5    1
    10     4    23    1
    11     5     6    2
    12     5     7   am
    13     7    22    1
    14     7     8    1
    15     8     9    1
    16     8    31    1
    17     8    32    1
    18     9    10    1
    19     9    33    1
    20     9    34    1
    21    10    11    1
    22    10    35    1
    23    10    36    1
    24    11    12    1
    25    11    13    1
    26    11    22    1
    27    13    14   am
    28    13    37    1
    29    14    15    2
    30    14    16    1
    31    16    21   ar
    32    16    17   ar
    33    17    18   ar
    34    17    38    1
    35    18    19   ar
    36    18    39    1
    37    19    20   ar
    38    19    40    1
    39    20    21   ar
    40    21    41    1
    41    22    42    1
    42    22    43    1
    43    23    24    2
    44    23    44    1
    45    24    25    1
    46    24    45    1
    47    25    26    2
@<TRIPOS>SUBSTRUCTURE
     1 ZINC000951315041        1 TEMP              0 ****  ****    0 ROOT


##########                                Name:    ZINC001248546333
##########                DOCK_Rotatable_Bonds:                   6
##########                         Heavy_Atoms:                  27
##########                    Molecular_Weight:             378.397
##########                DOCK_Rotatable_Bonds:                   6
##########                       Formal_Charge:         3.94881e-07
##########                     HBond_Acceptors:                   8
##########                        HBond_Donors:                   1
##########                         Heavy_Atoms:                  27
##########                          Grid_Score:          -25.798681
##########                     Grid_vdw_energy:          -26.188953
##########                      Grid_es_energy:            0.390272
##########           Internal_energy_repulsive:           29.828979

@<TRIPOS>MOLECULE
ZINC001248546333
 48 50 1 0 0
SMALL
USER_CHARGES


@<TRIPOS>ATOM
      1 C1          5.1609    1.1733   55.4347 C.3     1  ZINC001248546333   -0.1200
      2 C2          3.7023    1.4616   55.6807 C.ar    1  ZINC001248546333   -0.0800
      3 C3          3.1188    1.0931   56.8795 C.ar    1  ZINC001248546333   -0.1200
      4 C4          1.7802    1.3542   57.1133 C.ar    1  ZINC001248546333   -0.1100
      5 C5          1.0191    1.9848   56.1509 C.ar    1  ZINC001248546333   -0.1100
      6 C6          1.6019    2.3596   54.9396 C.ar    1  ZINC001248546333   -0.0600
      7 C7          0.7922    3.0356   53.9041 C.2     1  ZINC001248546333   -0.0600
      8 C8          1.3858    3.3660   52.7827 C.2     1  ZINC001248546333   -0.1700
      9 C9          0.6885    4.0723   51.6533 C.3     1  ZINC001248546333    0.1500
     10 N10        -0.7594    4.0752   51.9070 N.am    1  ZINC001248546333   -0.6300
     11 C11        -1.6435    3.8089   50.9252 C.2     1  ZINC001248546333    0.7200
     12 O12        -2.8360    3.8178   51.1622 O.2     1  ZINC001248546333   -0.5800
     13 N13        -1.2058    3.5325   49.6808 N.am    1  ZINC001248546333   -0.7500
     14 C14        -2.1668    3.2430   48.6137 C.3     1  ZINC001248546333    0.2000
     15 C15        -1.5951    3.6818   47.2902 C.2     1  ZINC001248546333    0.0700
     16 C16        -0.9825    4.8617   47.0376 C.2     1  ZINC001248546333   -0.2000
     17 C17        -0.6020    4.8694   45.6916 C.2     1  ZINC001248546333   -0.0200
     18 C18         0.1125    5.9905   44.9819 C.3     1  ZINC001248546333    0.5600
     19 F19         0.2868    7.0637   45.8623 F       1  ZINC001248546333   -0.1700
     20 F20         1.3618    5.5417   44.5405 F       1  ZINC001248546333   -0.1700
     21 F21        -0.6480    6.4070   43.8839 F       1  ZINC001248546333   -0.1600
     22 N22        -0.9727    3.7351   45.1555 N.2     1  ZINC001248546333   -0.2200
     23 N23        -1.5972    2.9662   46.1461 N.pl3   1  ZINC001248546333   -0.3400
     24 C24        -2.1610    1.6257   45.9690 C.3     1  ZINC001248546333    0.0900
     25 C25        -1.2053    4.3815   53.2772 C.3     1  ZINC001248546333    0.1300
     26 C26        -0.6547    3.2923   54.2043 C.3     1  ZINC001248546333   -0.1000
     27 C27         2.9532    2.0978   54.7121 C.ar    1  ZINC001248546333   -0.1100
     28 H28         5.7611    2.0146   55.7812 H       1  ZINC001248546333    0.0700
     29 H29         5.4499    0.2730   55.9769 H       1  ZINC001248546333    0.0700
     30 H30         5.3267    1.0237   54.3677 H       1  ZINC001248546333    0.0700
     31 H31         3.7103    0.5991   57.6361 H       1  ZINC001248546333    0.1200
     32 H32         1.3303    1.0633   58.0510 H       1  ZINC001248546333    0.1200
     33 H33        -0.0257    2.1877   56.3345 H       1  ZINC001248546333    0.1200
     34 H34         2.4302    3.1182   52.6641 H       1  ZINC001248546333    0.1200
     35 H35         1.0489    5.0988   51.5879 H       1  ZINC001248546333    0.0800
     36 H36         0.8933    3.5528   50.7171 H       1  ZINC001248546333    0.0800
     37 H37        -0.2544    3.5254   49.4918 H       1  ZINC001248546333    0.4000
     38 H38        -2.3668    2.1718   48.5858 H       1  ZINC001248546333    0.1000
     39 H39        -3.0952    3.7810   48.8049 H       1  ZINC001248546333    0.0900
     40 H40        -0.8171    5.6568   47.7493 H       1  ZINC001248546333    0.1700
     41 H41        -1.3942    0.8788   46.1745 H       1  ZINC001248546333    0.0900
     42 H42        -2.9953    1.4887   46.6570 H       1  ZINC001248546333    0.1000
     43 H43        -2.5133    1.5123   44.9438 H       1  ZINC001248546333    0.1000
     44 H44        -0.8229    5.3562   53.5800 H       1  ZINC001248546333    0.0700
     45 H45        -2.2945    4.3829   53.3187 H       1  ZINC001248546333    0.1000
     46 H46        -1.2265    2.3752   54.0625 H       1  ZINC001248546333    0.0800
     47 H47        -0.7515    3.6178   55.2400 H       1  ZINC001248546333    0.0900
     48 H48         3.4102    2.3853   53.7766 H       1  ZINC001248546333    0.1200
@<TRIPOS>BOND
     1     1     2    1
     2     1    28    1
     3     1    29    1
     4     1    30    1
     5     2    27   ar
     6     2     3   ar
     7     3     4   ar
     8     3    31    1
     9     4     5   ar
    10     4    32    1
    11     5     6   ar
    12     5    33    1
    13     6     7    1
    14     6    27   ar
    15     7    26    1
    16     7     8    2
    17     8     9    1
    18     8    34    1
    19     9    10    1
    20     9    35    1
    21     9    36    1
    22    10    11   am
    23    10    25    1
    24    11    12    2
    25    11    13   am
    26    13    14    1
    27    13    37    1
    28    14    15    1
    29    14    38    1
    30    14    39    1
    31    15    23    1
    32    15    16    2
    33    16    17    1
    34    16    40    1
    35    17    18    1
    36    17    22    2
    37    18    19    1
    38    18    20    1
    39    18    21    1
    40    22    23    1
    41    23    24    1
    42    24    41    1
    43    24    42    1
    44    24    43    1
    45    25    26    1
    46    25    44    1
    47    25    45    1
    48    26    46    1
    49    26    47    1
    50    27    48    1
@<TRIPOS>SUBSTRUCTURE
     1 ZINC001248546333        1 TEMP              0 ****  ****    0 ROOT


##########                                Name:    ZINC000826052721
##########                DOCK_Rotatable_Bonds:                   3
##########                         Heavy_Atoms:                  29
##########                    Molecular_Weight:             393.399
##########                DOCK_Rotatable_Bonds:                   3
##########                       Formal_Charge:        -4.47035e-07
##########                     HBond_Acceptors:                   9
##########                        HBond_Donors:                   2
##########                         Heavy_Atoms:                  29
##########                          Grid_Score:          -25.740177
##########                     Grid_vdw_energy:          -23.069580
##########                      Grid_es_energy:           -2.670598
##########           Internal_energy_repulsive:           17.205790

@<TRIPOS>MOLECULE
ZINC000826052721
 46 50 1 0 0
SMALL
USER_CHARGES


@<TRIPOS>ATOM
      1 C1         -8.1335   -2.1329   60.4656 C.3     1  ZINC000826052721   -0.0400
      2 N2         -9.0406   -1.0118   60.7453 N.4     1  ZINC000826052721   -0.3800
      3 H3         -8.5343   -0.1419   60.6743 H       1  ZINC000826052721    0.4300
      4 C4         -9.5899   -1.1506   62.0970 C.3     1  ZINC000826052721    0.0500
      5 C5        -10.6348   -0.0973   62.3548 C.ar    1  ZINC000826052721   -0.1300
      6 C6        -10.9824    0.1844   63.6672 C.ar    1  ZINC000826052721   -0.1000
      7 C7        -11.9403    1.1391   63.9456 C.ar    1  ZINC000826052721   -0.1000
      8 C8        -12.5568    1.8183   62.9117 C.ar    1  ZINC000826052721   -0.0800
      9 C9        -12.2109    1.5400   61.6040 C.ar    1  ZINC000826052721   -0.0800
     10 C10       -11.2487    0.5828   61.3240 C.ar    1  ZINC000826052721   -0.1200
     11 C11       -10.8969    0.3108   59.8837 C.3     1  ZINC000826052721    0.1100
     12 H12       -10.2641    1.1146   59.5072 H       1  ZINC000826052721    0.1100
     13 N13       -12.1276    0.2430   59.0846 N.3     1  ZINC000826052721   -0.6200
     14 C14       -11.9774   -0.6209   58.0158 C.ar    1  ZINC000826052721    0.1600
     15 C15       -12.5651   -1.8906   58.0246 C.ar    1  ZINC000826052721   -0.0400
     16 C16       -13.3633   -2.3348   59.1856 C.2     1  ZINC000826052721    0.0700
     17 N17       -14.2386   -3.3427   59.2152 N.2     1  ZINC000826052721   -0.3800
     18 N18       -14.7168   -3.4050   60.4108 N.2     1  ZINC000826052721   -0.1600
     19 N19       -14.1885   -2.4771   61.1291 N.2     1  ZINC000826052721   -0.1700
     20 N20       -13.3560   -1.8040   60.4108 N.pl3   1  ZINC000826052721   -0.3400
     21 C21       -12.3929   -2.7355   56.9188 C.ar    1  ZINC000826052721    0.1800
     22 N22       -11.6867   -2.3705   55.8785 N.ar    1  ZINC000826052721   -0.4700
     23 C23       -11.0941   -1.1709   55.8098 C.ar    1  ZINC000826052721    0.0900
     24 C24       -10.3394   -0.8050   54.6804 C.ar    1  ZINC000826052721    0.1700
     25 F25       -10.2054   -1.6651   53.6473 F       1  ZINC000826052721   -0.1100
     26 C26        -9.7442    0.4210   54.6313 C.ar    1  ZINC000826052721   -0.1900
     27 C27        -9.8702    1.3226   55.6866 C.ar    1  ZINC000826052721    0.1300
     28 F28        -9.2685    2.5297   55.6092 F       1  ZINC000826052721   -0.1300
     29 C29       -10.5944    0.9997   56.7977 C.ar    1  ZINC000826052721   -0.1500
     30 C30       -11.2193   -0.2525   56.8793 C.ar    1  ZINC000826052721   -0.0600
     31 C31       -10.1477   -1.0181   59.7773 C.3     1  ZINC000826052721    0.0000
     32 H32        -8.6826   -3.0717   60.5392 H       1  ZINC000826052721    0.1200
     33 H33        -7.7257   -2.0283   59.4601 H       1  ZINC000826052721    0.1300
     34 H34        -7.3190   -2.1306   61.1899 H       1  ZINC000826052721    0.1200
     35 H35        -8.7853   -1.0445   62.8247 H       1  ZINC000826052721    0.1400
     36 H36       -10.0407   -2.1375   62.2021 H       1  ZINC000826052721    0.1400
     37 H37       -10.5011   -0.3454   64.4759 H       1  ZINC000826052721    0.1300
     38 H38       -12.2071    1.3549   64.9696 H       1  ZINC000826052721    0.1300
     39 H39       -13.3071    2.5650   63.1261 H       1  ZINC000826052721    0.1300
     40 H40       -12.6919    2.0711   60.7960 H       1  ZINC000826052721    0.1400
     41 H41       -12.4064    1.1607   58.7714 H       1  ZINC000826052721    0.4100
     42 H42       -12.8510   -3.7135   56.9273 H       1  ZINC000826052721    0.1800
     43 H43        -9.1660    0.6973   53.7619 H       1  ZINC000826052721    0.1600
     44 H44       -10.6853    1.7055   57.6102 H       1  ZINC000826052721    0.1400
     45 H45       -10.8271   -1.8402   60.0025 H       1  ZINC000826052721    0.1400
     46 H46        -9.7502   -1.1344   58.7690 H       1  ZINC000826052721    0.1400
@<TRIPOS>BOND
     1     1     2    1
     2     1    32    1
     3     1    33    1
     4     1    34    1
     5     2     3    1
     6     2    31    1
     7     2     4    1
     8     4     5    1
     9     4    35    1
    10     4    36    1
    11     5    10   ar
    12     5     6   ar
    13     6     7   ar
    14     6    37    1
    15     7     8   ar
    16     7    38    1
    17     8     9   ar
    18     8    39    1
    19     9    10   ar
    20     9    40    1
    21    10    11    1
    22    11    12    1
    23    11    13    1
    24    11    31    1
    25    13    14    1
    26    13    41    1
    27    14    30   ar
    28    14    15   ar
    29    15    16    1
    30    15    21   ar
    31    16    20    1
    32    16    17    2
    33    17    18    1
    34    18    19    2
    35    19    20    1
    36    21    22   ar
    37    21    42    1
    38    22    23   ar
    39    23    30   ar
    40    23    24   ar
    41    24    25    1
    42    24    26   ar
    43    26    27   ar
    44    26    43    1
    45    27    28    1
    46    27    29   ar
    47    29    30   ar
    48    29    44    1
    49    31    45    1
    50    31    46    1
@<TRIPOS>SUBSTRUCTURE
     1 ZINC000826052721        1 TEMP              0 ****  ****    0 ROOT


##########                                Name:    ZINC000965273005
##########                DOCK_Rotatable_Bonds:                   7
##########                         Heavy_Atoms:                  27
##########                    Molecular_Weight:             368.436
##########                DOCK_Rotatable_Bonds:                   7
##########                       Formal_Charge:           0.0100003
##########                     HBond_Acceptors:                   7
##########                        HBond_Donors:                   2
##########                         Heavy_Atoms:                  27
##########                          Grid_Score:          -25.734194
##########                     Grid_vdw_energy:          -25.585379
##########                      Grid_es_energy:           -0.148816
##########           Internal_energy_repulsive:            7.445662

@<TRIPOS>MOLECULE
ZINC000965273005
 51 54 1 0 0
SMALL
USER_CHARGES


@<TRIPOS>ATOM
      1 C1         -8.8232   -0.3373   62.9055 C.3     1  ZINC000965273005   -0.1200
      2 C2         -8.2095    0.3647   61.7217 C.ar    1  ZINC000965273005   -0.0300
      3 C3         -7.6204    1.6018   61.8807 C.ar    1  ZINC000965273005   -0.1200
      4 C4         -7.0564    2.2478   60.7947 C.ar    1  ZINC000965273005   -0.0900
      5 C5         -7.0788    1.6583   59.5434 C.ar    1  ZINC000965273005   -0.1300
      6 C6         -7.6648    0.4212   59.3705 C.ar    1  ZINC000965273005   -0.0900
      7 C7         -8.2307   -0.2380   60.4627 C.ar    1  ZINC000965273005   -0.1300
      8 C8         -8.8604   -1.5638   60.2849 C.2     1  ZINC000965273005    0.5800
      9 O9         -8.2055   -2.5746   60.4487 O.2     1  ZINC000965273005   -0.5200
     10 N10       -10.1606   -1.6516   59.9410 N.am    1  ZINC000965273005   -0.6100
     11 C11       -11.0658   -0.5120   59.7055 C.3     1  ZINC000965273005    0.0900
     12 C12       -12.1729   -1.0703   58.7770 C.3     1  ZINC000965273005    0.1500
     13 H13       -13.0947   -0.4977   58.8799 H       1  ZINC000965273005    0.1200
     14 N14       -11.7259   -1.0942   57.3820 N.am    1  ZINC000965273005   -0.7100
     15 C15       -11.9533   -0.0327   56.5833 C.2     1  ZINC000965273005    0.6000
     16 O16       -12.5310    0.9442   57.0200 O.2     1  ZINC000965273005   -0.5400
     17 C17       -11.5019   -0.0560   55.1800 C.2     1  ZINC000965273005   -0.2800
     18 C18       -10.2510   -0.4250   54.7277 C.2     1  ZINC000965273005    0.1000
     19 N19       -10.2557   -0.3048   53.3904 N.pl3   1  ZINC000965273005   -0.3600
     20 C20        -9.1284   -0.5952   52.5009 C.3     1  ZINC000965273005    0.1000
     21 N21       -11.5190    0.1439   52.9896 N.2     1  ZINC000965273005   -0.3000
     22 C22       -12.2705    0.2895   54.0458 C.2     1  ZINC000965273005    0.1700
     23 C23       -13.7038    0.7546   54.0557 C.3     1  ZINC000965273005   -0.0800
     24 C24       -14.6310    0.2093   52.9677 C.3     1  ZINC000965273005   -0.1700
     25 C25       -14.7782   -0.2750   54.4115 C.3     1  ZINC000965273005   -0.1600
     26 C26       -12.3474   -2.5093   59.3306 C.3     1  ZINC000965273005    0.0900
     27 H27       -13.0080   -2.5115   60.1976 H       1  ZINC000965273005    0.0900
     28 O28       -12.8446   -3.3844   58.3163 O.3     1  ZINC000965273005   -0.5500
     29 C29       -10.9095   -2.8994   59.7324 C.3     1  ZINC000965273005    0.0600
     30 H30        -8.0981   -1.0297   63.3333 H       1  ZINC000965273005    0.0800
     31 H31        -9.1092    0.3991   63.6565 H       1  ZINC000965273005    0.0700
     32 H32        -9.7061   -0.8891   62.5830 H       1  ZINC000965273005    0.0700
     33 H33        -7.5996    2.0674   62.8550 H       1  ZINC000965273005    0.1300
     34 H34        -6.5970    3.2165   60.9245 H       1  ZINC000965273005    0.1300
     35 H35        -6.6368    2.1678   58.6998 H       1  ZINC000965273005    0.1300
     36 H36        -7.6819   -0.0377   58.3930 H       1  ZINC000965273005    0.1300
     37 H37       -11.4967   -0.1691   60.6461 H       1  ZINC000965273005    0.0900
     38 H38       -10.5321    0.3009   59.2131 H       1  ZINC000965273005    0.0900
     39 H39       -11.2662   -1.8739   57.0333 H       1  ZINC000965273005    0.4000
     40 H40        -9.4209   -0.7500   55.3373 H       1  ZINC000965273005    0.1800
     41 H41        -9.1675   -1.6403   52.1940 H       1  ZINC000965273005    0.0800
     42 H42        -9.1863    0.0445   51.6203 H       1  ZINC000965273005    0.1000
     43 H43        -8.1926   -0.4056   53.0267 H       1  ZINC000965273005    0.0900
     44 H44       -13.8626    1.7817   54.3844 H       1  ZINC000965273005    0.1400
     45 H45       -15.3999    0.8777   52.5801 H       1  ZINC000965273005    0.1000
     46 H46       -14.2042   -0.4859   52.2447 H       1  ZINC000965273005    0.1000
     47 H47       -14.4483   -1.2887   54.6384 H       1  ZINC000965273005    0.0900
     48 H48       -15.6439    0.0748   54.9739 H       1  ZINC000965273005    0.1000
     49 H49       -12.1549   -3.7840   57.7688 H       1  ZINC000965273005    0.3900
     50 H50       -10.4486   -3.4856   58.9374 H       1  ZINC000965273005    0.0800
     51 H51       -10.9264   -3.4749   60.6580 H       1  ZINC000965273005    0.0800
@<TRIPOS>BOND
     1     1     2    1
     2     1    30    1
     3     1    31    1
     4     1    32    1
     5     2     7   ar
     6     2     3   ar
     7     3     4   ar
     8     3    33    1
     9     4     5   ar
    10     4    34    1
    11     5     6   ar
    12     5    35    1
    13     6     7   ar
    14     6    36    1
    15     7     8    1
    16     8     9    2
    17     8    10   am
    18    10    29    1
    19    10    11    1
    20    11    12    1
    21    11    37    1
    22    11    38    1
    23    12    13    1
    24    12    14    1
    25    12    26    1
    26    14    15   am
    27    14    39    1
    28    15    16    2
    29    15    17    1
    30    17    22    1
    31    17    18    2
    32    18    19    1
    33    18    40    1
    34    19    20    1
    35    19    21    1
    36    20    41    1
    37    20    42    1
    38    20    43    1
    39    21    22    2
    40    22    23    1
    41    23    25    1
    42    23    24    1
    43    23    44    1
    44    24    25    1
    45    24    45    1
    46    24    46    1
    47    25    47    1
    48    25    48    1
    49    26    27    1
    50    26    28    1
    51    26    29    1
    52    28    49    1
    53    29    50    1
    54    29    51    1
@<TRIPOS>SUBSTRUCTURE
     1 ZINC000965273005        1 TEMP              0 ****  ****    0 ROOT


##########                                Name:    ZINC001076281847
##########                DOCK_Rotatable_Bonds:                   4
##########                         Heavy_Atoms:                  24
##########                    Molecular_Weight:             362.883
##########                DOCK_Rotatable_Bonds:                   4
##########                       Formal_Charge:         -0.00999959
##########                     HBond_Acceptors:                   7
##########                        HBond_Donors:                   0
##########                         Heavy_Atoms:                  24
##########                          Grid_Score:          -25.415825
##########                     Grid_vdw_energy:          -25.068560
##########                      Grid_es_energy:           -0.347266
##########           Internal_energy_repulsive:           10.312016

@<TRIPOS>MOLECULE
ZINC001076281847
 43 46 1 0 0
SMALL
USER_CHARGES


@<TRIPOS>ATOM
      1 C1         -4.0020    3.5939   52.6058 C.3     1  ZINC001076281847   -0.0900
      2 C2         -3.4778    4.2916   51.3771 C.2     1  ZINC001076281847    0.1400
      3 N3         -3.7650    5.5351   51.1258 N.2     1  ZINC001076281847   -0.4600
      4 S4         -2.9936    5.9424   49.6712 S.3     1  ZINC001076281847    0.2500
      5 C5         -2.2800    4.3976   49.4177 C.2     1  ZINC001076281847   -0.2100
      6 C6         -1.4030    3.9757   48.2670 C.3     1  ZINC001076281847    0.1200
      7 N7         -1.9691    2.7772   47.6338 N.3     1  ZINC001076281847   -0.5000
      8 C8         -1.6511    1.5697   48.4118 C.3     1  ZINC001076281847    0.0300
      9 C9         -1.3394    0.4547   47.3957 C.3     1  ZINC001076281847   -0.1000
     10 H10        -2.1930   -0.1890   47.1834 H       1  ZINC001076281847    0.1200
     11 C11        -0.0905   -0.3199   47.8926 C.3     1  ZINC001076281847   -0.1300
     12 C12         1.0466    0.6869   47.5904 C.3     1  ZINC001076281847    0.1000
     13 N13         0.6610    1.3195   46.3161 N.am    1  ZINC001076281847   -0.6000
     14 C14         1.5072    1.8895   45.4356 C.2     1  ZINC001076281847    0.5700
     15 O15         1.0772    2.3835   44.4120 O.2     1  ZINC001076281847   -0.4900
     16 C16         2.9610    1.9141   45.7156 C.ar    1  ZINC001076281847   -0.0800
     17 C17         3.4677    2.5965   46.8258 C.ar    1  ZINC001076281847   -0.1800
     18 C18         4.8309    2.5932   47.0496 C.ar    1  ZINC001076281847    0.1000
     19 N19         5.6499    1.9590   46.2345 N.ar    1  ZINC001076281847   -0.4500
     20 C20         5.2158    1.3035   45.1768 C.ar    1  ZINC001076281847    0.1100
     21 C21         3.8660    1.2499   44.8796 C.ar    1  ZINC001076281847   -0.0500
     22 Cl22        3.3043    0.3831   43.4842 Cl      1  ZINC001076281847   -0.0100
     23 C23        -0.8178    1.2280   46.1546 C.3     1  ZINC001076281847    0.1000
     24 H24        -1.0842    0.7310   45.2216 H       1  ZINC001076281847    0.1100
     25 C25        -1.4628    2.6166   46.2625 C.3     1  ZINC001076281847    0.0200
     26 C26        -2.6671    3.6438   50.4704 C.2     1  ZINC001076281847   -0.1800
     27 H27        -3.2619    3.6578   53.4034 H       1  ZINC001076281847    0.0700
     28 H28        -4.9266    4.0723   52.9287 H       1  ZINC001076281847    0.0800
     29 H29        -4.1965    2.5467   52.3738 H       1  ZINC001076281847    0.0900
     30 H30        -1.3500    4.7824   47.5359 H       1  ZINC001076281847    0.1000
     31 H31        -0.4018    3.7533   48.6359 H       1  ZINC001076281847    0.1000
     32 H32        -0.7819    1.7516   49.0439 H       1  ZINC001076281847    0.0600
     33 H33        -2.5060    1.2861   49.0258 H       1  ZINC001076281847    0.0900
     34 H34        -0.1575   -0.5235   48.9613 H       1  ZINC001076281847    0.0900
     35 H35         0.0457   -1.2430   47.3291 H       1  ZINC001076281847    0.0800
     36 H36         1.1113    1.4345   48.3809 H       1  ZINC001076281847    0.0800
     37 H37         1.9970    0.1644   47.4823 H       1  ZINC001076281847    0.0800
     38 H38         2.8033    3.1189   47.4982 H       1  ZINC001076281847    0.1800
     39 H39         5.2312    3.1180   47.9045 H       1  ZINC001076281847    0.1700
     40 H40         5.9230    0.7979   44.5361 H       1  ZINC001076281847    0.1700
     41 H41        -2.2749    2.7029   45.5407 H       1  ZINC001076281847    0.1000
     42 H42        -0.7153    3.3862   46.0699 H       1  ZINC001076281847    0.0700
     43 H43        -2.3699    2.6122   50.5883 H       1  ZINC001076281847    0.1400
@<TRIPOS>BOND
     1     1     2    1
     2     1    27    1
     3     1    28    1
     4     1    29    1
     5     2    26    1
     6     2     3    2
     7     3     4    1
     8     4     5    1
     9     5     6    1
    10     5    26    2
    11     6     7    1
    12     6    30    1
    13     6    31    1
    14     7    25    1
    15     7     8    1
    16     8     9    1
    17     8    32    1
    18     8    33    1
    19     9    10    1
    20     9    23    1
    21     9    11    1
    22    11    12    1
    23    11    34    1
    24    11    35    1
    25    12    13    1
    26    12    36    1
    27    12    37    1
    28    13    14   am
    29    13    23    1
    30    14    15    2
    31    14    16    1
    32    16    21   ar
    33    16    17   ar
    34    17    18   ar
    35    17    38    1
    36    18    19   ar
    37    18    39    1
    38    19    20   ar
    39    20    21   ar
    40    20    40    1
    41    21    22    1
    42    23    24    1
    43    23    25    1
    44    25    41    1
    45    25    42    1
    46    26    43    1
@<TRIPOS>SUBSTRUCTURE
     1 ZINC001076281847        1 TEMP              0 ****  ****    0 ROOT


##########                                Name:    ZINC000463474628
##########                DOCK_Rotatable_Bonds:                   5
##########                         Heavy_Atoms:                  25
##########                    Molecular_Weight:              407.35
##########                DOCK_Rotatable_Bonds:                   5
##########                       Formal_Charge:           0.0200004
##########                     HBond_Acceptors:                   4
##########                        HBond_Donors:                   0
##########                         Heavy_Atoms:                  25
##########                          Grid_Score:          -25.201744
##########                     Grid_vdw_energy:          -24.723230
##########                      Grid_es_energy:           -0.478513
##########           Internal_energy_repulsive:           19.794666

@<TRIPOS>MOLECULE
ZINC000463474628
 52 54 1 0 0
SMALL
USER_CHARGES


@<TRIPOS>ATOM
      1 C1         -6.4199    2.6801   55.0631 C.3     1  ZINC000463474628   -0.1400
      2 C2         -7.7221    3.0817   55.7588 C.3     1  ZINC000463474628   -0.1300
      3 C3         -8.7254    1.9303   55.6671 C.3     1  ZINC000463474628    0.1400
      4 H4         -8.2856    1.0986   55.1168 H       1  ZINC000463474628    0.0800
      5 C5        -10.0097    2.4086   54.9576 C.3     1  ZINC000463474628   -0.1300
      6 C6        -11.1328    1.6863   55.7476 C.3     1  ZINC000463474628   -0.1300
      7 C7        -10.5594    1.7006   57.1866 C.3     1  ZINC000463474628    0.0900
      8 N8         -9.1068    1.4906   57.0173 N.am    1  ZINC000463474628   -0.6100
      9 C9         -8.2729    0.9830   57.9464 C.2     1  ZINC000463474628    0.5300
     10 O10        -7.0929    0.8547   57.6970 O.2     1  ZINC000463474628   -0.5100
     11 C11        -8.8066    0.5749   59.2954 C.3     1  ZINC000463474628   -0.1200
     12 H12        -9.7861    1.0271   59.4511 H       1  ZINC000463474628    0.1000
     13 C13        -7.8462    1.0476   60.3890 C.3     1  ZINC000463474628   -0.1000
     14 C14        -8.4036    0.6624   61.7612 C.3     1  ZINC000463474628   -0.1300
     15 C15        -8.5239   -0.8623   61.8494 C.3     1  ZINC000463474628    0.0900
     16 N16        -9.3277   -1.3395   60.7159 N.am    1  ZINC000463474628   -0.6000
     17 C17       -10.4081   -2.1190   60.9202 C.2     1  ZINC000463474628    0.5700
     18 O18       -10.7255   -2.4338   62.0506 O.2     1  ZINC000463474628   -0.5200
     19 C19       -11.2067   -2.5912   59.7697 C.ar    1  ZINC000463474628   -0.1200
     20 C20       -10.9221   -3.8227   59.1774 C.ar    1  ZINC000463474628   -0.0800
     21 C21       -11.6709   -4.2580   58.1039 C.ar    1  ZINC000463474628   -0.1000
     22 C22       -12.7031   -3.4760   57.6138 C.ar    1  ZINC000463474628   -0.0700
     23 Br23      -13.7253   -4.0804   56.1422 Br      1  ZINC000463474628   -0.0400
     24 C24       -12.9903   -2.2532   58.1973 C.ar    1  ZINC000463474628   -0.0900
     25 C25       -12.2526   -1.8099   59.2745 C.ar    1  ZINC000463474628   -0.0300
     26 C26       -12.5663   -0.4790   59.9081 C.3     1  ZINC000463474628   -0.1300
     27 C27        -8.9323   -0.9507   59.3553 C.3     1  ZINC000463474628    0.1200
     28 H28        -5.8056    2.0980   55.7499 H       1  ZINC000463474628    0.0700
     29 H29        -6.6487    2.0799   54.1825 H       1  ZINC000463474628    0.0600
     30 H30        -5.8779    3.5763   54.7613 H       1  ZINC000463474628    0.0300
     31 H31        -7.5202    3.3053   56.8064 H       1  ZINC000463474628    0.0600
     32 H32        -8.1367    3.9645   55.2723 H       1  ZINC000463474628    0.0700
     33 H33       -10.1153    3.4904   55.0391 H       1  ZINC000463474628    0.0800
     34 H34       -10.0117    2.0975   53.9129 H       1  ZINC000463474628    0.0800
     35 H35       -12.0683    2.2431   55.6942 H       1  ZINC000463474628    0.0900
     36 H36       -11.2669    0.6652   55.3907 H       1  ZINC000463474628    0.0800
     37 H37       -10.7520    2.6622   57.6621 H       1  ZINC000463474628    0.0700
     38 H38       -10.9921    0.8918   57.7754 H       1  ZINC000463474628    0.0800
     39 H39        -6.8737    0.5764   60.2468 H       1  ZINC000463474628    0.0800
     40 H40        -7.7364    2.1306   60.3327 H       1  ZINC000463474628    0.0700
     41 H41        -7.7307    1.0199   62.5407 H       1  ZINC000463474628    0.0800
     42 H42        -9.3870    1.1133   61.8940 H       1  ZINC000463474628    0.0700
     43 H43        -7.5311   -1.3102   61.8076 H       1  ZINC000463474628    0.0800
     44 H44        -9.0119   -1.1369   62.7846 H       1  ZINC000463474628    0.1000
     45 H45       -10.1170   -4.4334   59.5586 H       1  ZINC000463474628    0.1400
     46 H46       -11.4515   -5.2104   57.6446 H       1  ZINC000463474628    0.1400
     47 H47       -13.7964   -1.6475   57.8102 H       1  ZINC000463474628    0.1400
     48 H48       -13.2277   -0.6297   60.7613 H       1  ZINC000463474628    0.0700
     49 H49       -11.6417   -0.0093   60.2436 H       1  ZINC000463474628    0.0900
     50 H50       -13.0566    0.1646   59.1777 H       1  ZINC000463474628    0.0700
     51 H51        -9.6894   -1.2839   58.6454 H       1  ZINC000463474628    0.1000
     52 H52        -7.9727   -1.4056   59.1096 H       1  ZINC000463474628    0.0800
@<TRIPOS>BOND
     1     1     2    1
     2     1    28    1
     3     1    29    1
     4     1    30    1
     5     2     3    1
     6     2    31    1
     7     2    32    1
     8     3     4    1
     9     3     8    1
    10     3     5    1
    11     5     6    1
    12     5    33    1
    13     5    34    1
    14     6     7    1
    15     6    35    1
    16     6    36    1
    17     7     8    1
    18     7    37    1
    19     7    38    1
    20     8     9   am
    21     9    10    2
    22     9    11    1
    23    11    12    1
    24    11    27    1
    25    11    13    1
    26    13    14    1
    27    13    39    1
    28    13    40    1
    29    14    15    1
    30    14    41    1
    31    14    42    1
    32    15    16    1
    33    15    43    1
    34    15    44    1
    35    16    17   am
    36    16    27    1
    37    17    18    2
    38    17    19    1
    39    19    25   ar
    40    19    20   ar
    41    20    21   ar
    42    20    45    1
    43    21    22   ar
    44    21    46    1
    45    22    23    1
    46    22    24   ar
    47    24    25   ar
    48    24    47    1
    49    25    26    1
    50    26    48    1
    51    26    49    1
    52    26    50    1
    53    27    51    1
    54    27    52    1
@<TRIPOS>SUBSTRUCTURE
     1 ZINC000463474628        1 TEMP              0 ****  ****    0 ROOT


##########                                Name:    ZINC000302023461
##########                DOCK_Rotatable_Bonds:                   3
##########                         Heavy_Atoms:                  25
##########                    Molecular_Weight:             356.362
##########                DOCK_Rotatable_Bonds:                   3
##########                       Formal_Charge:        -2.08616e-07
##########                     HBond_Acceptors:                   9
##########                        HBond_Donors:                   1
##########                         Heavy_Atoms:                  25
##########                          Grid_Score:          -25.155157
##########                     Grid_vdw_energy:          -25.693850
##########                      Grid_es_energy:            0.538693
##########           Internal_energy_repulsive:           20.521442

@<TRIPOS>MOLECULE
ZINC000302023461
 37 40 1 0 0
SMALL
USER_CHARGES


@<TRIPOS>ATOM
      1 O1         -3.2961    1.8741   55.6283 O.2     1  ZINC000302023461   -0.1600
      2 N2         -2.3742    2.3473   54.9882 N.pl3   1  ZINC000302023461    0.0200
      3 O3         -1.2306    1.9954   55.2162 O.2     1  ZINC000302023461   -0.1300
      4 C4         -2.6442    3.3457   53.9290 C.ar    1  ZINC000302023461    0.0000
      5 C5         -3.9401    3.7452   53.6699 C.ar    1  ZINC000302023461   -0.0600
      6 C6         -4.1933    4.6779   52.6804 C.ar    1  ZINC000302023461   -0.0900
      7 C7         -3.1502    5.2139   51.9476 C.ar    1  ZINC000302023461   -0.0800
      8 C8         -1.8514    4.8190   52.2013 C.ar    1  ZINC000302023461   -0.0500
      9 C9         -1.5928    3.8862   53.1981 C.ar    1  ZINC000302023461   -0.1100
     10 S10         0.0627    3.3798   53.5257 S.3     1  ZINC000302023461    0.1900
     11 C11         0.8123    3.4199   51.9318 C.2     1  ZINC000302023461    0.2100
     12 N12         1.9051    4.0779   51.6197 N.2     1  ZINC000302023461   -0.3200
     13 N13         2.1509    3.8410   50.2575 N.pl3   1  ZINC000302023461   -0.4700
     14 C14         1.1584    3.0304   49.8260 C.2     1  ZINC000302023461    0.3500
     15 C15         0.9966    2.5088   48.4518 C.ar    1  ZINC000302023461   -0.0400
     16 C16         2.0912    2.4618   47.5880 C.ar    1  ZINC000302023461   -0.0900
     17 C17         1.9372    1.9766   46.3065 C.ar    1  ZINC000302023461   -0.1100
     18 C18         0.6955    1.5338   45.8704 C.ar    1  ZINC000302023461    0.0800
     19 O19         0.5648    1.0669   44.5990 O.3     1  ZINC000302023461   -0.3000
     20 C20        -0.6023    0.2877   44.3156 C.3     1  ZINC000302023461    0.0200
     21 C21        -1.8194    1.0123   44.9060 C.3     1  ZINC000302023461    0.0200
     22 O22        -1.6229    1.1405   46.3183 O.3     1  ZINC000302023461   -0.3000
     23 C23        -0.3997    1.5751   46.7286 C.ar    1  ZINC000302023461    0.0500
     24 C24        -0.2500    2.0569   48.0172 C.ar    1  ZINC000302023461   -0.0500
     25 N25         0.3640    2.7819   50.8485 N.2     1  ZINC000302023461   -0.5000
     26 H26        -4.7571    3.3286   54.2403 H       1  ZINC000302023461    0.1600
     27 H27        -5.2080    4.9882   52.4793 H       1  ZINC000302023461    0.1500
     28 H28        -3.3516    5.9421   51.1758 H       1  ZINC000302023461    0.1500
     29 H29        -1.0373    5.2376   51.6282 H       1  ZINC000302023461    0.1600
     30 H30         2.8868    4.1899   49.7306 H       1  ZINC000302023461    0.4400
     31 H31         3.0588    2.8056   47.9228 H       1  ZINC000302023461    0.1300
     32 H32         2.7857    1.9411   45.6391 H       1  ZINC000302023461    0.1500
     33 H33        -0.7229    0.1853   43.2372 H       1  ZINC000302023461    0.1300
     34 H34        -0.5052   -0.6982   44.7703 H       1  ZINC000302023461    0.0800
     35 H35        -1.9123    2.0010   44.4566 H       1  ZINC000302023461    0.0800
     36 H36        -2.7221    0.4331   44.7115 H       1  ZINC000302023461    0.1300
     37 H37        -1.0986    2.0871   48.6846 H       1  ZINC000302023461    0.1600
@<TRIPOS>BOND
     1     1     2    2
     2     2     3    2
     3     2     4    1
     4     4     9   ar
     5     4     5   ar
     6     5     6   ar
     7     5    26    1
     8     6     7   ar
     9     6    27    1
    10     7     8   ar
    11     7    28    1
    12     8     9   ar
    13     8    29    1
    14     9    10    1
    15    10    11    1
    16    11    25    1
    17    11    12    2
    18    12    13    1
    19    13    14    1
    20    13    30    1
    21    14    15    1
    22    14    25    2
    23    15    24   ar
    24    15    16   ar
    25    16    17   ar
    26    16    31    1
    27    17    18   ar
    28    17    32    1
    29    18    23   ar
    30    18    19    1
    31    19    20    1
    32    20    21    1
    33    20    33    1
    34    20    34    1
    35    21    22    1
    36    21    35    1
    37    21    36    1
    38    22    23    1
    39    23    24   ar
    40    24    37    1
@<TRIPOS>SUBSTRUCTURE
     1 ZINC000302023461        1 TEMP              0 ****  ****    0 ROOT


##########                                Name:    ZINC000845755710
##########                DOCK_Rotatable_Bonds:                   3
##########                         Heavy_Atoms:                  24
##########                    Molecular_Weight:             349.814
##########                DOCK_Rotatable_Bonds:                   3
##########                       Formal_Charge:         -0.00999974
##########                     HBond_Acceptors:                   6
##########                        HBond_Donors:                   0
##########                         Heavy_Atoms:                  24
##########                          Grid_Score:          -25.114330
##########                     Grid_vdw_energy:          -25.257313
##########                      Grid_es_energy:            0.142982
##########           Internal_energy_repulsive:           19.708467

@<TRIPOS>MOLECULE
ZINC000845755710
 44 47 1 0 0
SMALL
USER_CHARGES


@<TRIPOS>ATOM
      1 C1         -0.8392    3.3964   56.9858 C.3     1  ZINC000845755710   -0.1700
      2 C2         -0.1711    3.5308   55.6159 C.3     1  ZINC000845755710    0.2600
      3 C3         -1.2029    3.9896   54.5837 C.3     1  ZINC000845755710   -0.0900
      4 C4         -0.5344    4.1073   53.2121 C.3     1  ZINC000845755710   -0.1300
      5 C5         -1.5620    4.6000   52.1883 C.3     1  ZINC000845755710    0.1100
      6 N6         -2.7258    3.7037   52.2174 N.am    1  ZINC000845755710   -0.6000
      7 C7         -3.1759    3.1257   51.0861 C.2     1  ZINC000845755710    0.5900
      8 O8         -4.1406    2.3855   51.1235 O.2     1  ZINC000845755710   -0.5200
      9 C9         -2.5009    3.3899   49.8064 C.2     1  ZINC000845755710   -0.2200
     10 C10        -2.3447    4.5945   49.1934 C.2     1  ZINC000845755710    0.0600
     11 O11        -1.6766    4.4368   48.0448 O.3     1  ZINC000845755710   -0.1800
     12 C12        -1.3582    3.1425   47.8355 C.ar    1  ZINC000845755710    0.0500
     13 C13        -0.6843    2.4838   46.8147 C.ar    1  ZINC000845755710   -0.0900
     14 C14        -0.5065    1.1179   46.8754 C.ar    1  ZINC000845755710   -0.0800
     15 C15        -0.9954    0.3883   47.9495 C.ar    1  ZINC000845755710   -0.0400
     16 Cl16       -0.7613   -1.3310   48.0064 Cl      1  ZINC000845755710   -0.0600
     17 C17        -1.6667    1.0256   48.9728 C.ar    1  ZINC000845755710   -0.0500
     18 C18        -1.8463    2.4038   48.9234 C.ar    1  ZINC000845755710   -0.0900
     19 C19        -3.3892    3.4490   53.5032 C.3     1  ZINC000845755710    0.1000
     20 C20        -2.3412    2.9692   54.5123 C.3     1  ZINC000845755710   -0.1300
     21 O21         0.8942    4.4931   55.6905 O.3     1  ZINC000845755710   -0.3700
     22 C22         2.0889    3.7063   55.9143 C.3     1  ZINC000845755710    0.0100
     23 C23         1.7983    2.4442   55.0644 C.3     1  ZINC000845755710    0.0200
     24 O24         0.3761    2.2659   55.2208 O.3     1  ZINC000845755710   -0.3800
     25 H25        -0.1032    3.0642   57.7180 H       1  ZINC000845755710    0.0600
     26 H26        -1.2432    4.3622   57.2893 H       1  ZINC000845755710    0.0800
     27 H27        -1.6471    2.6671   56.9261 H       1  ZINC000845755710    0.0800
     28 H28        -1.6031    4.9601   54.8770 H       1  ZINC000845755710    0.0900
     29 H29         0.2911    4.8168   53.2694 H       1  ZINC000845755710    0.0800
     30 H30        -0.1557    3.1318   52.9070 H       1  ZINC000845755710    0.0800
     31 H31        -1.8744    5.6128   52.4425 H       1  ZINC000845755710    0.0700
     32 H32        -1.1188    4.5912   51.1925 H       1  ZINC000845755710    0.1000
     33 H33        -2.7062    5.5373   49.5766 H       1  ZINC000845755710    0.2200
     34 H34        -0.3002    3.0416   45.9734 H       1  ZINC000845755710    0.1500
     35 H35         0.0181    0.6110   46.0790 H       1  ZINC000845755710    0.1500
     36 H36        -2.0474    0.4579   49.8090 H       1  ZINC000845755710    0.1400
     37 H37        -3.8507    4.3679   53.8648 H       1  ZINC000845755710    0.0800
     38 H38        -4.1518    2.6807   53.3752 H       1  ZINC000845755710    0.0900
     39 H39        -1.9456    2.0043   54.1950 H       1  ZINC000845755710    0.0700
     40 H40        -2.8018    2.8685   55.4951 H       1  ZINC000845755710    0.0800
     41 H41         2.9736    4.2278   55.5489 H       1  ZINC000845755710    0.1100
     42 H42         2.1960    3.4507   56.9685 H       1  ZINC000845755710    0.0800
     43 H43         2.0521    2.6173   54.0185 H       1  ZINC000845755710    0.0800
     44 H44         2.3399    1.5831   55.4558 H       1  ZINC000845755710    0.1000
@<TRIPOS>BOND
     1     1     2    1
     2     1    25    1
     3     1    26    1
     4     1    27    1
     5     2    24    1
     6     2     3    1
     7     2    21    1
     8     3    20    1
     9     3     4    1
    10     3    28    1
    11     4     5    1
    12     4    29    1
    13     4    30    1
    14     5     6    1
    15     5    31    1
    16     5    32    1
    17     6     7   am
    18     6    19    1
    19     7     8    2
    20     7     9    1
    21     9    18    1
    22     9    10    2
    23    10    11    1
    24    10    33    1
    25    11    12    1
    26    12    18   ar
    27    12    13   ar
    28    13    14   ar
    29    13    34    1
    30    14    15   ar
    31    14    35    1
    32    15    16    1
    33    15    17   ar
    34    17    18   ar
    35    17    36    1
    36    19    20    1
    37    19    37    1
    38    19    38    1
    39    20    39    1
    40    20    40    1
    41    21    22    1
    42    22    23    1
    43    22    41    1
    44    22    42    1
    45    23    24    1
    46    23    43    1
    47    23    44    1
@<TRIPOS>SUBSTRUCTURE
     1 ZINC000845755710        1 TEMP              0 ****  ****    0 ROOT


##########                                Name:    ZINC000560467340
##########                DOCK_Rotatable_Bonds:                   7
##########                         Heavy_Atoms:                  24
##########                    Molecular_Weight:             369.481
##########                DOCK_Rotatable_Bonds:                   7
##########                       Formal_Charge:          -0.0199997
##########                     HBond_Acceptors:                   7
##########                        HBond_Donors:                   2
##########                         Heavy_Atoms:                  24
##########                          Grid_Score:          -25.004816
##########                     Grid_vdw_energy:          -23.806446
##########                      Grid_es_energy:           -1.198370
##########           Internal_energy_repulsive:           25.058210

@<TRIPOS>MOLECULE
ZINC000560467340
 44 46 1 0 0
SMALL
USER_CHARGES


@<TRIPOS>ATOM
      1 O1         -0.4224    6.9177   46.5074 O.2     1  ZINC000560467340   -0.9600
      2 S2          0.3161    5.8348   45.9585 S.o2    1  ZINC000560467340    2.7100
      3 O3          1.6541    5.5374   46.3331 O.2     1  ZINC000560467340   -0.9500
      4 N4         -0.5683    4.4669   46.2567 N.am    1  ZINC000560467340   -1.0900
      5 C5         -0.1464    3.1837   45.6896 C.3     1  ZINC000560467340    0.1400
      6 C6         -0.6529    2.0434   46.5752 C.3     1  ZINC000560467340   -0.0500
      7 C7         -0.4196    0.6993   45.8827 C.3     1  ZINC000560467340   -0.0700
      8 C8          0.8038    0.7908   45.0074 C.ar    1  ZINC000560467340   -0.0900
      9 C9          2.0602    0.8516   45.5806 C.ar    1  ZINC000560467340   -0.0900
     10 C10         3.1828    0.9355   44.7789 C.ar    1  ZINC000560467340   -0.1500
     11 C11         3.0486    0.9582   43.4010 C.ar    1  ZINC000560467340    0.1000
     12 F12         4.1453    1.0398   42.6163 F       1  ZINC000560467340   -0.1400
     13 C13         1.7897    0.8968   42.8280 C.ar    1  ZINC000560467340   -0.1500
     14 C14         0.6688    0.8081   43.6316 C.ar    1  ZINC000560467340   -0.0900
     15 C15        -2.1548    2.2324   46.8724 C.3     1  ZINC000560467340   -0.1300
     16 C16        -2.3146    1.7574   48.3380 C.3     1  ZINC000560467340   -0.1200
     17 C17        -1.0169    2.2732   49.0080 C.3     1  ZINC000560467340   -0.1600
     18 C18         0.0706    2.0695   47.9330 C.3     1  ZINC000560467340    0.1100
     19 H19         0.5871    1.1240   48.0990 H       1  ZINC000560467340    0.0600
     20 O20         1.0046    3.1503   47.9705 O.3     1  ZINC000560467340   -0.5500
     21 C21         0.3302    6.0764   44.2132 C.2     1  ZINC000560467340   -0.6900
     22 C22        -0.5400    6.8742   43.5922 C.2     1  ZINC000560467340   -0.1000
     23 S23        -0.2195    6.8643   41.8629 S.3     1  ZINC000560467340    0.1500
     24 C24         1.1179    5.7441   42.0870 C.2     1  ZINC000560467340   -0.2200
     25 C25         1.2488    5.4574   43.3830 C.2     1  ZINC000560467340   -0.0700
     26 H26        -1.3656    4.5152   46.8070 H       1  ZINC000560467340    0.4200
     27 H27        -0.5599    3.0761   44.6869 H       1  ZINC000560467340    0.0600
     28 H28         0.9419    3.1489   45.6395 H       1  ZINC000560467340    0.0800
     29 H29        -0.2713   -0.0759   46.6345 H       1  ZINC000560467340    0.0800
     30 H30        -1.2865    0.4507   45.2705 H       1  ZINC000560467340    0.0800
     31 H31         2.1646    0.8338   46.6554 H       1  ZINC000560467340    0.1300
     32 H32         4.1642    0.9837   45.2270 H       1  ZINC000560467340    0.1400
     33 H33         1.6837    0.9149   41.7533 H       1  ZINC000560467340    0.1400
     34 H34        -0.3133    0.7599   43.1849 H       1  ZINC000560467340    0.1300
     35 H35        -2.4330    3.2822   46.7792 H       1  ZINC000560467340    0.0700
     36 H36        -2.7564    1.6165   46.2040 H       1  ZINC000560467340    0.0800
     37 H37        -3.1930    2.2107   48.7974 H       1  ZINC000560467340    0.0700
     38 H38        -2.3691    0.6699   48.3879 H       1  ZINC000560467340    0.0700
     39 H39        -1.1114    3.3295   49.2596 H       1  ZINC000560467340    0.0800
     40 H40        -0.7881    1.6870   49.8981 H       1  ZINC000560467340    0.0700
     41 H41         0.6022    4.0221   47.8558 H       1  ZINC000560467340    0.3800
     42 H42        -1.3221    7.4396   44.0772 H       1  ZINC000560467340    0.1800
     43 H43         1.7408    5.3522   41.2966 H       1  ZINC000560467340    0.1700
     44 H44         2.0089    4.7867   43.7558 H       1  ZINC000560467340    0.1500
@<TRIPOS>BOND
     1     1     2    2
     2     2     3    2
     3     2     4   am
     4     2    21    1
     5     4     5    1
     6     4    26    1
     7     5     6    1
     8     5    27    1
     9     5    28    1
    10     6    18    1
    11     6     7    1
    12     6    15    1
    13     7     8    1
    14     7    29    1
    15     7    30    1
    16     8    14   ar
    17     8     9   ar
    18     9    10   ar
    19     9    31    1
    20    10    11   ar
    21    10    32    1
    22    11    12    1
    23    11    13   ar
    24    13    14   ar
    25    13    33    1
    26    14    34    1
    27    15    16    1
    28    15    35    1
    29    15    36    1
    30    16    17    1
    31    16    37    1
    32    16    38    1
    33    17    18    1
    34    17    39    1
    35    17    40    1
    36    18    19    1
    37    18    20    1
    38    20    41    1
    39    21    25    1
    40    21    22    2
    41    22    23    1
    42    22    42    1
    43    23    24    1
    44    24    25    2
    45    24    43    1
    46    25    44    1
@<TRIPOS>SUBSTRUCTURE
     1 ZINC000560467340        1 TEMP              0 ****  ****    0 ROOT


##########                                Name:    ZINC000154446008
##########                DOCK_Rotatable_Bonds:                   5
##########                         Heavy_Atoms:                  24
##########                    Molecular_Weight:              349.41
##########                DOCK_Rotatable_Bonds:                   5
##########                       Formal_Charge:          -0.0199999
##########                     HBond_Acceptors:                   8
##########                        HBond_Donors:                   0
##########                         Heavy_Atoms:                  24
##########                          Grid_Score:          -24.920918
##########                     Grid_vdw_energy:          -24.385511
##########                      Grid_es_energy:           -0.535406
##########           Internal_energy_repulsive:           13.032780

@<TRIPOS>MOLECULE
ZINC000154446008
 43 45 1 0 0
SMALL
USER_CHARGES


@<TRIPOS>ATOM
      1 O1          0.3154    5.7383   53.1557 O.2     1  ZINC000154446008   -0.5000
      2 C2         -0.3186    4.8159   52.6778 C.2     1  ZINC000154446008    0.5900
      3 C3         -1.5585    4.3687   53.3193 C.2     1  ZINC000154446008   -0.2300
      4 C4         -2.7970    4.9081   53.1131 C.2     1  ZINC000154446008   -0.0600
      5 C5         -3.7859    4.2946   53.8447 C.2     1  ZINC000154446008   -0.0500
      6 C6         -3.3738    3.2876   54.6238 C.2     1  ZINC000154446008   -0.2100
      7 N7         -4.2603    2.4851   55.4964 N.pl3   1  ZINC000154446008    0.0500
      8 O8         -5.4534    2.7265   55.5393 O.2     1  ZINC000154446008   -0.1300
      9 O9         -3.7966    1.5835   56.1715 O.2     1  ZINC000154446008   -0.1500
     10 S10        -1.6915    3.0474   54.4717 S.3     1  ZINC000154446008    0.3500
     11 N11         0.1163    4.2092   51.5557 N.am    1  ZINC000154446008   -0.6100
     12 C12        -0.6454    3.1021   50.9606 C.3     1  ZINC000154446008    0.0800
     13 C13        -0.9522    3.4485   49.4984 C.3     1  ZINC000154446008    0.0900
     14 N14         0.2919    3.8826   48.8477 N.am    1  ZINC000154446008   -0.6100
     15 C15         0.7264    3.2764   47.7249 C.2     1  ZINC000154446008    0.5500
     16 O16         1.7576    3.6443   47.1954 O.2     1  ZINC000154446008   -0.5300
     17 C17        -0.0466    2.1699   47.1402 C.2     1  ZINC000154446008   -0.1500
     18 C18        -0.9866    2.4636   46.2681 C.2     1  ZINC000154446008   -0.1100
     19 C19        -1.8564    1.4383   45.6010 C.3     1  ZINC000154446008   -0.1000
     20 C20        -1.2316    0.0482   45.7380 C.3     1  ZINC000154446008   -0.1200
     21 C21        -0.8618   -0.1765   47.2093 C.3     1  ZINC000154446008   -0.1200
     22 C22         0.2870    0.7706   47.5686 C.3     1  ZINC000154446008   -0.0700
     23 C23         1.0537    4.9896   49.4427 C.3     1  ZINC000154446008    0.1000
     24 C24         1.3576    4.6469   50.9017 C.3     1  ZINC000154446008    0.1000
     25 H25        -2.9805    5.7342   52.4420 H       1  ZINC000154446008    0.1800
     26 H26        -4.8197    4.6030   53.7948 H       1  ZINC000154446008    0.1800
     27 H27        -0.0547    2.1870   51.0036 H       1  ZINC000154446008    0.0900
     28 H28        -1.5782    2.9644   51.5075 H       1  ZINC000154446008    0.0900
     29 H29        -1.3441    2.5685   48.9884 H       1  ZINC000154446008    0.1100
     30 H30        -1.6857    4.2539   49.4594 H       1  ZINC000154446008    0.0800
     31 H31        -1.1419    3.5027   46.0180 H       1  ZINC000154446008    0.1100
     32 H32        -2.8406    1.4396   46.0692 H       1  ZINC000154446008    0.0900
     33 H33        -1.9605    1.6851   44.5444 H       1  ZINC000154446008    0.0800
     34 H34        -1.9490   -0.7086   45.4210 H       1  ZINC000154446008    0.0700
     35 H35        -0.3346   -0.0124   45.1215 H       1  ZINC000154446008    0.0700
     36 H36        -1.7252    0.0342   47.8402 H       1  ZINC000154446008    0.0700
     37 H37        -0.5427   -1.2088   47.3532 H       1  ZINC000154446008    0.0700
     38 H38         1.1972    0.4408   47.0679 H       1  ZINC000154446008    0.0800
     39 H39         0.4444    0.7550   48.6470 H       1  ZINC000154446008    0.0700
     40 H40         1.9864    5.1274   48.8958 H       1  ZINC000154446008    0.1100
     41 H41         0.4630    5.9047   49.3997 H       1  ZINC000154446008    0.0800
     42 H42         1.7493    5.5277   51.4104 H       1  ZINC000154446008    0.1100
     43 H43         2.0904    3.8412   50.9433 H       1  ZINC000154446008    0.0800
@<TRIPOS>BOND
     1     1     2    2
     2     2     3    1
     3     2    11   am
     4     3    10    1
     5     3     4    2
     6     4     5    1
     7     4    25    1
     8     5     6    2
     9     5    26    1
    10     6     7    1
    11     6    10    1
    12     7     8    2
    13     7     9    2
    14    11    24    1
    15    11    12    1
    16    12    13    1
    17    12    27    1
    18    12    28    1
    19    13    14    1
    20    13    29    1
    21    13    30    1
    22    14    15   am
    23    14    23    1
    24    15    16    2
    25    15    17    1
    26    17    22    1
    27    17    18    2
    28    18    19    1
    29    18    31    1
    30    19    20    1
    31    19    32    1
    32    19    33    1
    33    20    21    1
    34    20    34    1
    35    20    35    1
    36    21    22    1
    37    21    36    1
    38    21    37    1
    39    22    38    1
    40    22    39    1
    41    23    24    1
    42    23    40    1
    43    23    41    1
    44    24    42    1
    45    24    43    1
@<TRIPOS>SUBSTRUCTURE
     1 ZINC000154446008        1 TEMP              0 ****  ****    0 ROOT


##########                                Name:    ZINC000820901229
##########                DOCK_Rotatable_Bonds:                   3
##########                         Heavy_Atoms:                  18
##########                    Molecular_Weight:             331.233
##########                DOCK_Rotatable_Bonds:                   3
##########                       Formal_Charge:           0.0099999
##########                     HBond_Acceptors:                   5
##########                        HBond_Donors:                   1
##########                         Heavy_Atoms:                  18
##########                          Grid_Score:          -24.901274
##########                     Grid_vdw_energy:          -25.264385
##########                      Grid_es_energy:            0.363111
##########           Internal_energy_repulsive:           19.506931

@<TRIPOS>MOLECULE
ZINC000820901229
 33 35 1 0 0
SMALL
USER_CHARGES


@<TRIPOS>ATOM
      1 O1         -2.9147    2.7283   48.9780 O.2     1  ZINC000820901229   -0.5300
      2 C2         -1.9818    3.0489   49.6895 C.2     1  ZINC000820901229    0.6000
      3 N3         -0.7171    2.9156   49.2434 N.am    1  ZINC000820901229   -0.7100
      4 C4         -0.4656    2.3789   47.9036 C.3     1  ZINC000820901229    0.1600
      5 H5          0.6078    2.3117   47.7267 H       1  ZINC000820901229    0.1000
      6 C6         -1.1142    3.2869   46.8464 C.3     1  ZINC000820901229   -0.1300
      7 C7         -0.9288    2.7270   45.4393 C.3     1  ZINC000820901229   -0.1100
      8 C8         -1.4478    1.2831   45.3371 C.3     1  ZINC000820901229   -0.1100
      9 C9         -0.7031    0.4615   46.3689 C.3     1  ZINC000820901229    0.0800
     10 H10         0.3711    0.5744   46.2224 H       1  ZINC000820901229    0.0700
     11 O11        -1.0300   -0.9196   46.4733 O.3     1  ZINC000820901229   -0.3700
     12 C12        -0.5230   -1.3345   47.7674 C.3     1  ZINC000820901229    0.0500
     13 C13        -0.5127   -0.0785   48.6767 C.3     1  ZINC000820901229   -0.1500
     14 C14        -1.0983    1.0049   47.7703 C.3     1  ZINC000820901229   -0.1400
     15 H15        -2.1811    1.0602   47.8818 H       1  ZINC000820901229    0.0900
     16 C16        -2.2344    3.5884   51.0362 C.2     1  ZINC000820901229    0.0100
     17 C17        -1.2501    4.0201   51.8559 C.2     1  ZINC000820901229   -0.2200
     18 S18        -1.9482    4.5670   53.3172 S.3     1  ZINC000820901229    0.3100
     19 C19        -3.5140    4.1882   52.7507 C.2     1  ZINC000820901229   -0.0100
     20 Br20       -5.1082    4.4540   53.7324 Br      1  ZINC000820901229    0.0700
     21 N21        -3.4586    3.7021   51.5598 N.2     1  ZINC000820901229   -0.4100
     22 H22         0.0267    3.1751   49.8094 H       1  ZINC000820901229    0.4100
     23 H23        -2.1800    3.3744   47.0574 H       1  ZINC000820901229    0.0700
     24 H24        -0.6595    4.2760   46.8990 H       1  ZINC000820901229    0.0700
     25 H25        -1.4735    3.3525   44.7320 H       1  ZINC000820901229    0.0800
     26 H26         0.1310    2.7437   45.1856 H       1  ZINC000820901229    0.0700
     27 H27        -2.5175    1.2582   45.5451 H       1  ZINC000820901229    0.0700
     28 H28        -1.2539    0.8893   44.3394 H       1  ZINC000820901229    0.0800
     29 H29        -1.1748   -2.0967   48.1944 H       1  ZINC000820901229    0.0900
     30 H30         0.4892   -1.7247   47.6617 H       1  ZINC000820901229    0.0600
     31 H31        -1.1465   -0.2302   49.5504 H       1  ZINC000820901229    0.0800
     32 H32         0.5050    0.1717   48.9766 H       1  ZINC000820901229    0.0800
     33 H33        -0.1950    4.0190   51.6254 H       1  ZINC000820901229    0.2000
@<TRIPOS>BOND
     1     1     2    2
     2     2     3   am
     3     2    16    1
     4     3     4    1
     5     3    22    1
     6     4     5    1
     7     4    14    1
     8     4     6    1
     9     6     7    1
    10     6    23    1
    11     6    24    1
    12     7     8    1
    13     7    25    1
    14     7    26    1
    15     8     9    1
    16     8    27    1
    17     8    28    1
    18     9    10    1
    19     9    14    1
    20     9    11    1
    21    11    12    1
    22    12    13    1
    23    12    29    1
    24    12    30    1
    25    13    14    1
    26    13    31    1
    27    13    32    1
    28    14    15    1
    29    16    21    1
    30    16    17    2
    31    17    18    1
    32    17    33    1
    33    18    19    1
    34    19    20    1
    35    19    21    2
@<TRIPOS>SUBSTRUCTURE
     1 ZINC000820901229        1 TEMP              0 ****  ****    0 ROOT


##########                                Name:    ZINC000928803822
##########                DOCK_Rotatable_Bonds:                   7
##########                         Heavy_Atoms:                  21
##########                    Molecular_Weight:             364.165
##########                DOCK_Rotatable_Bonds:                   7
##########                       Formal_Charge:         -0.00999978
##########                     HBond_Acceptors:                   7
##########                        HBond_Donors:                   1
##########                         Heavy_Atoms:                  21
##########                          Grid_Score:          -24.865759
##########                     Grid_vdw_energy:          -22.522818
##########                      Grid_es_energy:           -2.342941
##########           Internal_energy_repulsive:            7.669095

@<TRIPOS>MOLECULE
ZINC000928803822
 34 34 1 0 0
SMALL
USER_CHARGES


@<TRIPOS>ATOM
      1 C1         -2.8770    2.1537   55.6968 C.3     1  ZINC000928803822    0.0900
      2 N2         -1.8269    3.1749   55.6682 N.pl3   1  ZINC000928803822   -0.6300
      3 C3         -1.9944    4.4190   56.4234 C.3     1  ZINC000928803822    0.0900
      4 C4         -0.6659    2.9622   54.9208 C.ar    1  ZINC000928803822    0.2200
      5 C5          0.5142    2.5995   55.5587 C.ar    1  ZINC000928803822   -0.1500
      6 C6          1.6664    2.3878   54.8230 C.ar    1  ZINC000928803822   -0.0500
      7 Br7         3.2673    1.8939   55.7000 Br      1  ZINC000928803822   -0.0400
      8 C8          1.6511    2.5356   53.4502 C.ar    1  ZINC000928803822   -0.1200
      9 C9          0.4703    2.8997   52.8006 C.ar    1  ZINC000928803822   -0.0800
     10 C10         0.4511    3.0586   51.3307 C.2     1  ZINC000928803822    0.5700
     11 O11         1.3427    3.6686   50.7735 O.2     1  ZINC000928803822   -0.5100
     12 N12        -0.5551    2.5271   50.6084 N.am    1  ZINC000928803822   -0.7200
     13 C13        -0.5750    2.6860   49.1523 C.3     1  ZINC000928803822    0.1100
     14 H14         0.4430    2.6302   48.7667 H       1  ZINC000928803822    0.1400
     15 C15        -1.1817    4.0446   48.7958 C.3     1  ZINC000928803822   -0.0300
     16 C16        -0.8791    4.3638   47.3911 C.1     1  ZINC000928803822    0.2000
     17 N17        -0.6455    4.6100   46.3070 N.1     1  ZINC000928803822   -0.4000
     18 C18        -1.4181    1.5717   48.5291 C.3     1  ZINC000928803822    0.4400
     19 F19        -2.7725    1.8157   48.7802 F       1  ZINC000928803822   -0.1800
     20 F20        -1.1987    1.5378   47.1478 F       1  ZINC000928803822   -0.1700
     21 F21        -1.0540    0.3426   49.0893 F       1  ZINC000928803822   -0.1600
     22 C22        -0.6926    3.1075   53.5419 C.ar    1  ZINC000928803822   -0.1200
     23 H23        -3.5835    2.3362   54.8870 H       1  ZINC000928803822    0.0600
     24 H24        -2.4287    1.1679   55.5725 H       1  ZINC000928803822    0.0700
     25 H25        -3.4002    2.1971   56.6520 H       1  ZINC000928803822    0.0700
     26 H26        -1.5899    4.2918   57.4275 H       1  ZINC000928803822    0.0500
     27 H27        -1.4637    5.2254   55.9173 H       1  ZINC000928803822    0.0700
     28 H28        -3.0542    4.6655   56.4872 H       1  ZINC000928803822    0.0700
     29 H29         0.5321    2.4829   56.6322 H       1  ZINC000928803822    0.1400
     30 H30         2.5527    2.3698   52.8791 H       1  ZINC000928803822    0.1300
     31 H31        -1.2660    2.0392   51.0529 H       1  ZINC000928803822    0.4100
     32 H32        -2.2621    4.0080   48.9355 H       1  ZINC000928803822    0.1400
     33 H33        -0.7576    4.8128   49.4425 H       1  ZINC000928803822    0.1300
     34 H34        -1.6088    3.3893   53.0445 H       1  ZINC000928803822    0.1500
@<TRIPOS>BOND
     1     1     2    1
     2     1    23    1
     3     1    24    1
     4     1    25    1
     5     2     3    1
     6     2     4    1
     7     3    26    1
     8     3    27    1
     9     3    28    1
    10     4    22   ar
    11     4     5   ar
    12     5     6   ar
    13     5    29    1
    14     6     7    1
    15     6     8   ar
    16     8     9   ar
    17     8    30    1
    18     9    10    1
    19     9    22   ar
    20    10    11    2
    21    10    12   am
    22    12    13    1
    23    12    31    1
    24    13    14    1
    25    13    15    1
    26    13    18    1
    27    15    16    1
    28    15    32    1
    29    15    33    1
    30    16    17    3
    31    18    19    1
    32    18    20    1
    33    18    21    1
    34    22    34    1
@<TRIPOS>SUBSTRUCTURE
     1 ZINC000928803822        1 TEMP              0 ****  ****    0 ROOT


##########                                Name:    ZINC000950547210
##########                DOCK_Rotatable_Bonds:                   5
##########                         Heavy_Atoms:                  25
##########                    Molecular_Weight:              346.47
##########                DOCK_Rotatable_Bonds:                   5
##########                       Formal_Charge:         5.58794e-07
##########                     HBond_Acceptors:                   5
##########                        HBond_Donors:                   1
##########                         Heavy_Atoms:                  25
##########                          Grid_Score:          -24.844900
##########                     Grid_vdw_energy:          -24.217268
##########                      Grid_es_energy:           -0.627631
##########           Internal_energy_repulsive:           23.547205

@<TRIPOS>MOLECULE
ZINC000950547210
 55 58 1 0 0
SMALL
USER_CHARGES


@<TRIPOS>ATOM
      1 O1          0.0992    3.0878   50.1031 O.2     1  ZINC000950547210   -0.5200
      2 C2         -0.7765    3.2285   49.2758 C.2     1  ZINC000950547210    0.5200
      3 N3         -1.9973    3.6573   49.6529 N.am    1  ZINC000950547210   -0.7300
      4 C4         -2.2683    3.9477   51.0630 C.3     1  ZINC000950547210    0.1300
      5 H5         -1.8508    3.1554   51.6844 H       1  ZINC000950547210    0.0900
      6 C6         -1.6274    5.2850   51.4415 C.3     1  ZINC000950547210   -0.1300
      7 C7         -1.8820    5.5735   52.9227 C.3     1  ZINC000950547210   -0.1300
      8 C8         -3.3909    5.6741   53.1672 C.3     1  ZINC000950547210    0.1000
      9 N9         -4.0329    4.4488   52.6722 N.am    1  ZINC000950547210   -0.6100
     10 C10        -4.8375    3.7231   53.4737 C.2     1  ZINC000950547210    0.5600
     11 O11        -5.3631    2.7107   53.0520 O.2     1  ZINC000950547210   -0.5200
     12 C12        -5.0800    4.1556   54.8587 C.2     1  ZINC000950547210   -0.1400
     13 C13        -5.7665    5.2641   55.0698 C.2     1  ZINC000950547210   -0.1500
     14 C14        -6.0550    5.7869   56.4488 C.3     1  ZINC000950547210    0.0900
     15 O15        -5.8182    4.7661   57.4202 O.3     1  ZINC000950547210   -0.3700
     16 C16        -4.5367    4.1414   57.2782 C.3     1  ZINC000950547210    0.0600
     17 C17        -4.5429    3.3172   55.9861 C.3     1  ZINC000950547210   -0.1100
     18 C18        -3.7816    4.0291   51.2867 C.3     1  ZINC000950547210    0.1000
     19 C19        -0.4977    2.9298   47.8253 C.3     1  ZINC000950547210   -0.1000
     20 H20         0.0142    3.7784   47.3714 H       1  ZINC000950547210    0.1000
     21 C21        -1.8177    2.6794   47.0932 C.3     1  ZINC000950547210   -0.1100
     22 C22        -1.8130    1.2685   46.5015 C.3     1  ZINC000950547210   -0.0900
     23 C23        -0.6500    1.1321   45.5169 C.3     1  ZINC000950547210   -0.1100
     24 C24         0.6699    1.3825   46.2489 C.3     1  ZINC000950547210   -0.1100
     25 C25         0.3869    1.6857   47.7217 C.3     1  ZINC000950547210   -0.0600
     26 C26        -0.3316    0.4946   48.3587 C.3     1  ZINC000950547210   -0.1300
     27 C27        -1.6516    0.2442   47.6266 C.3     1  ZINC000950547210   -0.1200
     28 H28        -2.6965    3.7736   48.9906 H       1  ZINC000950547210    0.4000
     29 H29        -0.5536    5.2372   51.2601 H       1  ZINC000950547210    0.0800
     30 H30        -2.0627    6.0803   50.8366 H       1  ZINC000950547210    0.0700
     31 H31        -1.4686    4.7659   53.5270 H       1  ZINC000950547210    0.0700
     32 H32        -1.4054    6.5145   53.1972 H       1  ZINC000950547210    0.0900
     33 H33        -3.5817    5.7808   54.2351 H       1  ZINC000950547210    0.0900
     34 H34        -3.7907    6.5370   52.6346 H       1  ZINC000950547210    0.0700
     35 H35        -6.1345    5.8167   54.2179 H       1  ZINC000950547210    0.1200
     36 H36        -5.4078    6.6393   56.6549 H       1  ZINC000950547210    0.0700
     37 H37        -7.0963    6.1043   56.5044 H       1  ZINC000950547210    0.1100
     38 H38        -3.7607    4.9051   57.2262 H       1  ZINC000950547210    0.0600
     39 H39        -4.3527    3.4854   58.1291 H       1  ZINC000950547210    0.1000
     40 H40        -5.1692    2.4354   56.1210 H       1  ZINC000950547210    0.0900
     41 H41        -3.5254    3.0065   55.7488 H       1  ZINC000950547210    0.0900
     42 H42        -4.2130    4.7576   50.6002 H       1  ZINC000950547210    0.0700
     43 H43        -4.2305    3.0510   51.1141 H       1  ZINC000950547210    0.1000
     44 H44        -2.6463    2.7766   47.7947 H       1  ZINC000950547210    0.0700
     45 H45        -1.9327    3.4091   46.2917 H       1  ZINC000950547210    0.0700
     46 H46        -2.7534    1.0901   45.9801 H       1  ZINC000950547210    0.0700
     47 H47        -0.6467    0.1269   45.0954 H       1  ZINC000950547210    0.0600
     48 H48        -0.7650    1.8618   44.7154 H       1  ZINC000950547210    0.0600
     49 H49         1.3002    0.4961   46.1751 H       1  ZINC000950547210    0.0700
     50 H50         1.1818    2.2310   45.7951 H       1  ZINC000950547210    0.0600
     51 H51         1.3272    1.8641   48.2431 H       1  ZINC000950547210    0.0800
     52 H52         0.2986   -0.3918   48.2848 H       1  ZINC000950547210    0.0600
     53 H53        -0.5333    0.7106   49.4078 H       1  ZINC000950547210    0.0900
     54 H54        -2.4802    0.3413   48.3281 H       1  ZINC000950547210    0.0600
     55 H55        -1.6483   -0.7610   47.2051 H       1  ZINC000950547210    0.0600
@<TRIPOS>BOND
     1     1     2    2
     2     2     3   am
     3     2    19    1
     4     3     4    1
     5     3    28    1
     6     4     5    1
     7     4    18    1
     8     4     6    1
     9     6     7    1
    10     6    29    1
    11     6    30    1
    12     7     8    1
    13     7    31    1
    14     7    32    1
    15     8     9    1
    16     8    33    1
    17     8    34    1
    18     9    10   am
    19     9    18    1
    20    10    11    2
    21    10    12    1
    22    12    17    1
    23    12    13    2
    24    13    14    1
    25    13    35    1
    26    14    15    1
    27    14    36    1
    28    14    37    1
    29    15    16    1
    30    16    17    1
    31    16    38    1
    32    16    39    1
    33    17    40    1
    34    17    41    1
    35    18    42    1
    36    18    43    1
    37    19    20    1
    38    19    25    1
    39    19    21    1
    40    21    22    1
    41    21    44    1
    42    21    45    1
    43    22    27    1
    44    22    23    1
    45    22    46    1
    46    23    24    1
    47    23    47    1
    48    23    48    1
    49    24    25    1
    50    24    49    1
    51    24    50    1
    52    25    26    1
    53    25    51    1
    54    26    27    1
    55    26    52    1
    56    26    53    1
    57    27    54    1
    58    27    55    1
@<TRIPOS>SUBSTRUCTURE
     1 ZINC000950547210        1 TEMP              0 ****  ****    0 ROOT


##########                                Name:    ZINC000793092912
##########                DOCK_Rotatable_Bonds:                   4
##########                         Heavy_Atoms:                  26
##########                    Molecular_Weight:               407.2
##########                DOCK_Rotatable_Bonds:                   4
##########                       Formal_Charge:         2.90573e-07
##########                     HBond_Acceptors:                  10
##########                        HBond_Donors:                   1
##########                         Heavy_Atoms:                  26
##########                          Grid_Score:          -24.837013
##########                     Grid_vdw_energy:          -23.447615
##########                      Grid_es_energy:           -1.389400
##########           Internal_energy_repulsive:           12.386971

@<TRIPOS>MOLECULE
ZINC000793092912
 40 43 1 0 0
SMALL
USER_CHARGES


@<TRIPOS>ATOM
      1 C1         -1.9034    3.5005   54.0260 C.3     1  ZINC000793092912   -0.1300
      2 C2         -3.4288    3.5472   54.1367 C.3     1  ZINC000793092912   -0.0800
      3 C3         -4.0092    2.8784   55.3732 C.3     1  ZINC000793092912   -0.1100
      4 C4         -4.9778    3.7777   56.1180 C.3     1  ZINC000793092912    0.1100
      5 N5         -5.8466    4.5101   55.2123 N.am    1  ZINC000793092912   -0.5700
      6 C6         -7.1815    4.3965   55.3587 C.2     1  ZINC000793092912    0.5100
      7 O7         -7.9271    4.9987   54.6142 O.2     1  ZINC000793092912   -0.5100
      8 C8         -7.7433    3.5296   56.4371 C.2     1  ZINC000793092912    0.5100
      9 O9         -8.2808    4.0330   57.4021 O.2     1  ZINC000793092912   -0.4900
     10 N10        -7.6535    2.1885   56.3390 N.am    1  ZINC000793092912   -0.6400
     11 C11        -8.1796    1.3766   57.3490 C.ar    1  ZINC000793092912    0.1600
     12 C12        -9.4962    0.9411   57.2748 C.ar    1  ZINC000793092912   -0.1200
     13 C13       -10.0174    0.1390   58.2721 C.ar    1  ZINC000793092912   -0.0600
     14 C14        -9.2286   -0.2325   59.3488 C.ar    1  ZINC000793092912    0.0200
     15 O15        -9.4987   -1.0020   60.4444 O.3     1  ZINC000793092912   -0.2800
     16 C16        -8.2146   -1.3689   60.9824 C.3     1  ZINC000793092912    0.5700
     17 F17        -8.2703   -1.4463   62.3781 F       1  ZINC000793092912   -0.1100
     18 F18        -7.7841   -2.5849   60.4409 F       1  ZINC000793092912   -0.1500
     19 O19        -7.3506   -0.2938   60.5695 O.3     1  ZINC000793092912   -0.2800
     20 C20        -7.9071    0.2029   59.4262 C.ar    1  ZINC000793092912    0.0500
     21 C21        -7.3837    1.0012   58.4239 C.ar    1  ZINC000793092912   -0.0900
     22 C22        -5.3270    5.3623   54.1533 C.3     1  ZINC000793092912    0.1100
     23 C23        -4.1328    4.7158   53.4672 C.3     1  ZINC000793092912   -0.1200
     24 H24        -3.4725    5.4143   52.9532 H       1  ZINC000793092912    0.1400
     25 C25        -4.2249    3.3339   52.8380 C.3     1  ZINC000793092912    0.0000
     26 Cl26       -3.3048    3.0486   51.3139 Cl      1  ZINC000793092912   -0.0800
     27 Cl27       -5.7947    2.4577   52.9765 Cl      1  ZINC000793092912   -0.0900
     28 H28        -1.4787    4.3967   54.4783 H       1  ZINC000793092912    0.0800
     29 H29        -1.5284    2.6187   54.5456 H       1  ZINC000793092912    0.0700
     30 H30        -1.6166    3.4527   52.9757 H       1  ZINC000793092912    0.0700
     31 H31        -4.5316    1.9708   55.0710 H       1  ZINC000793092912    0.0900
     32 H32        -3.1934    2.6070   56.0433 H       1  ZINC000793092912    0.1000
     33 H33        -5.5907    3.1667   56.7806 H       1  ZINC000793092912    0.1100
     34 H34        -4.4107    4.4893   56.7182 H       1  ZINC000793092912    0.0800
     35 H35        -7.2239    1.7862   55.5679 H       1  ZINC000793092912    0.4300
     36 H36       -10.1136    1.2299   56.4370 H       1  ZINC000793092912    0.1500
     37 H37       -11.0415   -0.1987   58.2122 H       1  ZINC000793092912    0.1500
     38 H38        -6.3582    1.3350   58.4793 H       1  ZINC000793092912    0.1600
     39 H39        -6.1065    5.5212   53.4082 H       1  ZINC000793092912    0.1400
     40 H40        -5.0391    6.3240   54.5778 H       1  ZINC000793092912    0.1000
@<TRIPOS>BOND
     1     1     2    1
     2     1    28    1
     3     1    29    1
     4     1    30    1
     5     2    23    1
     6     2    25    1
     7     2     3    1
     8     3     4    1
     9     3    31    1
    10     3    32    1
    11     4     5    1
    12     4    33    1
    13     4    34    1
    14     5     6   am
    15     5    22    1
    16     6     7    2
    17     6     8    1
    18     8     9    2
    19     8    10   am
    20    10    11    1
    21    10    35    1
    22    11    21   ar
    23    11    12   ar
    24    12    13   ar
    25    12    36    1
    26    13    14   ar
    27    13    37    1
    28    14    20   ar
    29    14    15    1
    30    15    16    1
    31    16    17    1
    32    16    18    1
    33    16    19    1
    34    19    20    1
    35    20    21   ar
    36    21    38    1
    37    22    23    1
    38    22    39    1
    39    22    40    1
    40    23    24    1
    41    23    25    1
    42    25    26    1
    43    25    27    1
@<TRIPOS>SUBSTRUCTURE
     1 ZINC000793092912        1 TEMP              0 ****  ****    0 ROOT


##########                                Name:    ZINC000431691749
##########                DOCK_Rotatable_Bonds:                   4
##########                         Heavy_Atoms:                  24
##########                    Molecular_Weight:             328.454
##########                DOCK_Rotatable_Bonds:                   4
##########                       Formal_Charge:         -0.00999957
##########                     HBond_Acceptors:                   4
##########                        HBond_Donors:                   0
##########                         Heavy_Atoms:                  24
##########                          Grid_Score:          -24.830528
##########                     Grid_vdw_energy:          -24.331459
##########                      Grid_es_energy:           -0.499069
##########           Internal_energy_repulsive:          142.642059

@<TRIPOS>MOLECULE
ZINC000431691749
 52 54 1 0 0
SMALL
USER_CHARGES


@<TRIPOS>ATOM
      1 C1         -9.0772   -1.7827   60.9383 C.3     1  ZINC000431691749   -0.1200
      2 C2         -9.0651   -0.9986   59.6514 C.ar    1  ZINC000431691749   -0.0800
      3 C3         -8.0613   -0.0794   59.4117 C.ar    1  ZINC000431691749   -0.1200
      4 C4         -8.0502    0.6400   58.2311 C.ar    1  ZINC000431691749   -0.1100
      5 C5         -9.0427    0.4395   57.2902 C.ar    1  ZINC000431691749   -0.1100
      6 C6        -10.0464   -0.4807   57.5297 C.ar    1  ZINC000431691749   -0.0800
      7 C7        -11.1288   -0.6991   56.5040 C.3     1  ZINC000431691749    0.2000
      8 H8        -10.6835   -1.0606   55.5772 H       1  ZINC000431691749    0.1100
      9 N9        -12.0841   -1.6899   57.0058 N.am    1  ZINC000431691749   -0.5700
     10 C10       -12.4253   -2.8144   56.3460 C.2     1  ZINC000431691749    0.5200
     11 O11       -12.0152   -3.1829   55.2663 O.2     1  ZINC000431691749   -0.4400
     12 C12       -13.4277   -3.5231   57.2352 C.3     1  ZINC000431691749    0.0900
     13 H13       -14.3878   -3.6211   56.7284 H       1  ZINC000431691749    0.1300
     14 C14       -12.8993   -4.8966   57.6539 C.3     1  ZINC000431691749   -0.1500
     15 N15       -13.5461   -2.6320   58.4023 N.am    1  ZINC000431691749   -0.6000
     16 C16       -14.3924   -2.8398   59.5799 C.3     1  ZINC000431691749    0.1500
     17 C17       -15.2001   -1.5955   59.9853 C.3     1  ZINC000431691749   -0.1600
     18 C18       -16.3021   -2.0993   59.0384 C.3     1  ZINC000431691749   -0.1400
     19 C19       -15.7379   -3.5124   59.2606 C.3     1  ZINC000431691749   -0.1500
     20 C20       -12.7213   -1.5932   58.1783 C.2     1  ZINC000431691749    0.7000
     21 O21       -12.5767   -0.6665   58.9513 O.2     1  ZINC000431691749   -0.5300
     22 C22       -11.8550    0.6214   56.2398 C.3     1  ZINC000431691749   -0.0700
     23 C23       -11.6498    1.5630   57.4282 C.3     1  ZINC000431691749   -0.1400
     24 C24       -11.2915    1.2686   54.9731 C.3     1  ZINC000431691749   -0.1400
     25 C25       -13.3498    0.3531   56.0538 C.3     1  ZINC000431691749   -0.1600
     26 C26       -10.0550   -1.2029   58.7081 C.ar    1  ZINC000431691749   -0.1100
     27 H27        -8.5092   -2.7038   60.8079 H       1  ZINC000431691749    0.0700
     28 H28        -8.6258   -1.1864   61.7313 H       1  ZINC000431691749    0.0700
     29 H29       -10.1056   -2.0250   61.2065 H       1  ZINC000431691749    0.0700
     30 H30        -7.2857    0.0774   60.1468 H       1  ZINC000431691749    0.1200
     31 H31        -7.2662    1.3589   58.0441 H       1  ZINC000431691749    0.1200
     32 H32        -9.0344    1.0019   56.3683 H       1  ZINC000431691749    0.1100
     33 H33       -11.9521   -4.7766   58.1797 H       1  ZINC000431691749    0.0700
     34 H34       -13.6219   -5.3786   58.3125 H       1  ZINC000431691749    0.0800
     35 H35       -12.7476   -5.5131   56.7679 H       1  ZINC000431691749    0.0800
     36 H36       -13.8578   -3.3041   60.4087 H       1  ZINC000431691749    0.1000
     37 H37       -15.4952   -1.5893   61.0345 H       1  ZINC000431691749    0.0900
     38 H38       -14.7459   -0.6573   59.6666 H       1  ZINC000431691749    0.0700
     39 H39       -17.3100   -1.9648   59.4309 H       1  ZINC000431691749    0.0700
     40 H40       -16.1946   -1.7422   58.0142 H       1  ZINC000431691749    0.0800
     41 H41       -15.7179   -4.1217   58.3571 H       1  ZINC000431691749    0.1000
     42 H42       -16.1800   -4.0303   60.1118 H       1  ZINC000431691749    0.0900
     43 H43       -10.5849    1.7541   57.5607 H       1  ZINC000431691749    0.0600
     44 H44       -12.1671    2.5037   57.2399 H       1  ZINC000431691749    0.0600
     45 H45       -12.0512    1.1018   58.3306 H       1  ZINC000431691749    0.0600
     46 H46       -11.4376    0.5978   54.1265 H       1  ZINC000431691749    0.0500
     47 H47       -11.8088    2.2094   54.7849 H       1  ZINC000431691749    0.0600
     48 H48       -10.2266    1.4598   55.1056 H       1  ZINC000431691749    0.0500
     49 H49       -13.6191   -0.5716   56.5641 H       1  ZINC000431691749    0.0700
     50 H50       -13.9223    1.1800   56.4739 H       1  ZINC000431691749    0.0400
     51 H51       -13.5726    0.2597   54.9909 H       1  ZINC000431691749    0.1000
     52 H52       -10.8390   -1.9219   58.8950 H       1  ZINC000431691749    0.1300
@<TRIPOS>BOND
     1     1     2    1
     2     1    27    1
     3     1    28    1
     4     1    29    1
     5     2    26   ar
     6     2     3   ar
     7     3     4   ar
     8     3    30    1
     9     4     5   ar
    10     4    31    1
    11     5     6   ar
    12     5    32    1
    13     6     7    1
    14     6    26   ar
    15     7     8    1
    16     7     9    1
    17     7    22    1
    18     9    20   am
    19     9    10   am
    20    10    11    2
    21    10    12    1
    22    12    13    1
    23    12    14    1
    24    12    15    1
    25    14    33    1
    26    14    34    1
    27    14    35    1
    28    15    16    1
    29    15    20   am
    30    16    19    1
    31    16    17    1
    32    16    36    1
    33    17    18    1
    34    17    37    1
    35    17    38    1
    36    18    19    1
    37    18    39    1
    38    18    40    1
    39    19    41    1
    40    19    42    1
    41    20    21    2
    42    22    23    1
    43    22    24    1
    44    22    25    1
    45    23    43    1
    46    23    44    1
    47    23    45    1
    48    24    46    1
    49    24    47    1
    50    24    48    1
    51    25    49    1
    52    25    50    1
    53    25    51    1
    54    26    52    1
@<TRIPOS>SUBSTRUCTURE
     1 ZINC000431691749        1 TEMP              0 ****  ****    0 ROOT


##########                                Name:    ZINC000130059363
##########                DOCK_Rotatable_Bonds:                   4
##########                         Heavy_Atoms:                  29
##########                    Molecular_Weight:             389.497
##########                DOCK_Rotatable_Bonds:                   4
##########                       Formal_Charge:          -0.0100003
##########                     HBond_Acceptors:                   5
##########                        HBond_Donors:                   0
##########                         Heavy_Atoms:                  29
##########                          Grid_Score:          -24.730434
##########                     Grid_vdw_energy:          -25.242802
##########                      Grid_es_energy:            0.512367
##########           Internal_energy_repulsive:           28.990557

@<TRIPOS>MOLECULE
ZINC000130059363
 56 60 1 0 0
SMALL
USER_CHARGES


@<TRIPOS>ATOM
      1 C1         -9.2711    2.1071   60.1366 C.3     1  ZINC000130059363   -0.1200
      2 C2         -8.6990    1.1045   61.1053 C.ar    1  ZINC000130059363    0.1900
      3 N3         -8.3387    1.4946   62.3083 N.ar    1  ZINC000130059363   -0.4800
      4 C4         -7.8303    0.6469   63.1952 C.ar    1  ZINC000130059363    0.2000
      5 C5         -7.4409    1.1394   64.5379 C.ar    1  ZINC000130059363   -0.0600
      6 C6         -7.6145    2.4829   64.8681 C.ar    1  ZINC000130059363   -0.1000
      7 C7         -7.2505    2.9354   66.1198 C.ar    1  ZINC000130059363   -0.1200
      8 C8         -6.7140    2.0591   67.0462 C.ar    1  ZINC000130059363   -0.1000
      9 C9         -6.5390    0.7252   66.7241 C.ar    1  ZINC000130059363   -0.1300
     10 C10        -6.9050    0.2598   65.4776 C.ar    1  ZINC000130059363   -0.0700
     11 C11        -7.6585   -0.7007   62.8797 C.ar    1  ZINC000130059363   -0.1800
     12 C12        -8.0241   -1.1517   61.6269 C.ar    1  ZINC000130059363   -0.0400
     13 C13        -8.5622   -0.2304   60.7180 C.ar    1  ZINC000130059363   -0.1900
     14 C14        -8.9691   -0.6631   59.3657 C.2     1  ZINC000130059363    0.5700
     15 O15        -8.1775   -0.6049   58.4449 O.2     1  ZINC000130059363   -0.5200
     16 N16       -10.2181   -1.1226   59.1526 N.am    1  ZINC000130059363   -0.6000
     17 C17       -11.1904   -1.1944   60.2526 C.3     1  ZINC000130059363    0.1000
     18 C18       -12.4474   -0.4234   59.8386 C.3     1  ZINC000130059363   -0.1500
     19 C19       -12.9648   -0.9544   58.5066 C.3     1  ZINC000130059363    0.1500
     20 H20       -13.8350   -0.3634   58.2206 H       1  ZINC000130059363    0.0700
     21 C21       -11.9087   -0.8052   57.4133 C.3     1  ZINC000130059363   -0.1100
     22 H22       -11.6908    0.2494   57.2451 H       1  ZINC000130059363    0.1000
     23 C23       -12.4622   -1.4414   56.1283 C.3     1  ZINC000130059363   -0.1200
     24 C24       -12.5614   -2.9531   56.3475 C.3     1  ZINC000130059363   -0.1400
     25 C25       -13.2435   -3.2440   57.6531 C.2     1  ZINC000130059363    0.5200
     26 O26       -13.6810   -4.3603   57.8360 O.2     1  ZINC000130059363   -0.5400
     27 N27       -13.3787   -2.3441   58.6199 N.am    1  ZINC000130059363   -0.5700
     28 C28       -14.0106   -2.7639   59.8732 C.3     1  ZINC000130059363    0.0700
     29 C29       -15.1902   -1.9333   60.3826 C.3     1  ZINC000130059363   -0.1800
     30 C30       -15.4319   -3.3249   59.7945 C.3     1  ZINC000130059363   -0.1600
     31 C31       -10.6400   -1.5570   57.8152 C.3     1  ZINC000130059363    0.1100
     32 H32       -10.3597    2.0764   60.1827 H       1  ZINC000130059363    0.0800
     33 H33        -8.9243    3.1061   60.4005 H       1  ZINC000130059363    0.0800
     34 H34        -8.9433    1.8637   59.1260 H       1  ZINC000130059363    0.1000
     35 H35        -8.0326    3.1680   64.1455 H       1  ZINC000130059363    0.1300
     36 H36        -7.3845    3.9758   66.3768 H       1  ZINC000130059363    0.1300
     37 H37        -6.4302    2.4178   68.0245 H       1  ZINC000130059363    0.1300
     38 H38        -6.1193    0.0458   67.4512 H       1  ZINC000130059363    0.1300
     39 H39        -6.7680   -0.7818   65.2272 H       1  ZINC000130059363    0.1400
     40 H40        -7.2440   -1.3834   63.6067 H       1  ZINC000130059363    0.1400
     41 H41        -7.9019   -2.1898   61.3552 H       1  ZINC000130059363    0.1400
     42 H42       -11.4465   -2.2357   60.4487 H       1  ZINC000130059363    0.0700
     43 H43       -10.7635   -0.7459   61.1497 H       1  ZINC000130059363    0.0900
     44 H44       -13.2161   -0.5475   60.6014 H       1  ZINC000130059363    0.0900
     45 H45       -12.2063    0.6348   59.7378 H       1  ZINC000130059363    0.0800
     46 H46       -13.4506   -1.0354   55.9132 H       1  ZINC000130059363    0.0800
     47 H47       -11.7896   -1.2339   55.2960 H       1  ZINC000130059363    0.0900
     48 H48       -13.1334   -3.3991   55.5340 H       1  ZINC000130059363    0.1000
     49 H49       -11.5598   -3.3827   56.3597 H       1  ZINC000130059363    0.1000
     50 H50       -13.3399   -3.1949   60.6165 H       1  ZINC000130059363    0.1100
     51 H51       -15.2956   -1.8176   61.4613 H       1  ZINC000130059363    0.1100
     52 H52       -15.4960   -1.0743   59.7853 H       1  ZINC000130059363    0.1000
     53 H53       -15.8967   -3.3815   58.8103 H       1  ZINC000130059363    0.1000
     54 H54       -15.6963   -4.1247   60.4862 H       1  ZINC000130059363    0.1000
     55 H55        -9.8486   -1.3465   57.0959 H       1  ZINC000130059363    0.1000
     56 H56       -10.8416   -2.6281   57.8333 H       1  ZINC000130059363    0.0700
@<TRIPOS>BOND
     1     1     2    1
     2     1    32    1
     3     1    33    1
     4     1    34    1
     5     2    13   ar
     6     2     3   ar
     7     3     4   ar
     8     4     5    1
     9     4    11   ar
    10     5    10   ar
    11     5     6   ar
    12     6     7   ar
    13     6    35    1
    14     7     8   ar
    15     7    36    1
    16     8     9   ar
    17     8    37    1
    18     9    10   ar
    19     9    38    1
    20    10    39    1
    21    11    12   ar
    22    11    40    1
    23    12    13   ar
    24    12    41    1
    25    13    14    1
    26    14    15    2
    27    14    16   am
    28    16    31    1
    29    16    17    1
    30    17    18    1
    31    17    42    1
    32    17    43    1
    33    18    19    1
    34    18    44    1
    35    18    45    1
    36    19    20    1
    37    19    27    1
    38    19    21    1
    39    21    22    1
    40    21    23    1
    41    21    31    1
    42    23    24    1
    43    23    46    1
    44    23    47    1
    45    24    25    1
    46    24    48    1
    47    24    49    1
    48    25    26    2
    49    25    27   am
    50    27    28    1
    51    28    30    1
    52    28    29    1
    53    28    50    1
    54    29    30    1
    55    29    51    1
    56    29    52    1
    57    30    53    1
    58    30    54    1
    59    31    55    1
    60    31    56    1
@<TRIPOS>SUBSTRUCTURE
     1 ZINC000130059363        1 TEMP              0 ****  ****    0 ROOT


##########                                Name:    ZINC000521663393
##########                DOCK_Rotatable_Bonds:                   5
##########                         Heavy_Atoms:                  27
##########                    Molecular_Weight:              386.49
##########                DOCK_Rotatable_Bonds:                   5
##########                       Formal_Charge:               -0.02
##########                     HBond_Acceptors:                   6
##########                        HBond_Donors:                   1
##########                         Heavy_Atoms:                  27
##########                          Grid_Score:          -24.672897
##########                     Grid_vdw_energy:          -24.557648
##########                      Grid_es_energy:           -0.115250
##########           Internal_energy_repulsive:           47.388927

@<TRIPOS>MOLECULE
ZINC000521663393
 50 53 1 0 0
SMALL
USER_CHARGES


@<TRIPOS>ATOM
      1 C1         -1.4347    0.1047   44.9995 C.3     1  ZINC000521663393   -0.1500
      2 C2         -1.0684    0.7593   46.3330 C.3     1  ZINC000521663393    0.0800
      3 H3         -0.0834    0.4311   46.6648 H       1  ZINC000521663393    0.0900
      4 O4         -2.0633    0.4736   47.3309 O.3     1  ZINC000521663393   -0.2900
      5 C5         -2.1812    1.5426   48.1654 C.ar    1  ZINC000521663393    0.1400
      6 C6         -2.7229    1.6198   49.4455 C.ar    1  ZINC000521663393   -0.1800
      7 C7         -2.7496    2.8268   50.1178 C.ar    1  ZINC000521663393    0.1400
      8 F8         -3.2777    2.8934   51.3596 F       1  ZINC000521663393   -0.1300
      9 C9         -2.2373    3.9683   49.5246 C.ar    1  ZINC000521663393   -0.1800
     10 C10        -1.6934    3.8968   48.2544 C.ar    1  ZINC000521663393   -0.0200
     11 C11        -1.6633    2.6938   47.5848 C.ar    1  ZINC000521663393   -0.2000
     12 C12        -1.1231    2.3012   46.2200 C.3     1  ZINC000521663393    0.1700
     13 H13        -1.8048    2.6102   45.4277 H       1  ZINC000521663393    0.1200
     14 N14         0.2134    2.8613   46.0051 N.am    1  ZINC000521663393   -0.7200
     15 C15         0.3828    3.8939   45.1556 C.2     1  ZINC000521663393    0.5300
     16 O16        -0.5715    4.3604   44.5703 O.2     1  ZINC000521663393   -0.5000
     17 C17         1.7579    4.4689   44.9332 C.3     1  ZINC000521663393    0.1200
     18 H18         2.0852    4.9871   45.8345 H       1  ZINC000521663393    0.0700
     19 C19         2.7226    3.3554   44.6156 C.ar    1  ZINC000521663393   -0.0900
     20 C20         2.3439    2.3348   43.7636 C.ar    1  ZINC000521663393   -0.0900
     21 C21         3.2287    1.3136   43.4723 C.ar    1  ZINC000521663393   -0.1200
     22 C22         4.4924    1.3130   44.0326 C.ar    1  ZINC000521663393   -0.1100
     23 C23         4.8714    2.3341   44.8839 C.ar    1  ZINC000521663393   -0.1200
     24 C24         3.9880    3.3577   45.1719 C.ar    1  ZINC000521663393   -0.1100
     25 N25         1.7170    5.4162   43.8112 N.3     1  ZINC000521663393   -0.5300
     26 C26         3.0616    5.8891   43.4741 C.3     1  ZINC000521663393    0.0500
     27 C27         3.0612    6.5018   42.0695 C.3     1  ZINC000521663393   -0.0700
     28 S28         1.9403    7.9344   42.0650 S.3     1  ZINC000521663393   -0.2700
     29 C29         0.4238    7.2270   42.7781 C.3     1  ZINC000521663393   -0.0700
     30 C30         0.7874    6.5144   44.0852 C.3     1  ZINC000521663393    0.0600
     31 H31        -0.7054    0.3909   44.2417 H       1  ZINC000521663393    0.0800
     32 H32        -1.4332   -0.9792   45.1143 H       1  ZINC000521663393    0.0800
     33 H33        -2.4267    0.4361   44.6924 H       1  ZINC000521663393    0.0700
     34 H34        -3.1240    0.7335   49.9145 H       1  ZINC000521663393    0.1400
     35 H35        -2.2625    4.9109   50.0512 H       1  ZINC000521663393    0.1400
     36 H36        -1.2924    4.7845   47.7880 H       1  ZINC000521663393    0.1300
     37 H37         0.9765    2.4890   46.4741 H       1  ZINC000521663393    0.4000
     38 H38         1.3566    2.3353   43.3259 H       1  ZINC000521663393    0.1300
     39 H39         2.9326    0.5158   42.8072 H       1  ZINC000521663393    0.1300
     40 H40         5.1835    0.5148   43.8056 H       1  ZINC000521663393    0.1200
     41 H41         5.8586    2.3336   45.3220 H       1  ZINC000521663393    0.1300
     42 H42         4.2841    4.1555   45.8370 H       1  ZINC000521663393    0.1200
     43 H43         3.3726    6.6424   44.1978 H       1  ZINC000521663393    0.0500
     44 H44         3.7582    5.0511   43.5035 H       1  ZINC000521663393    0.1000
     45 H45         4.0694    6.8249   41.8105 H       1  ZINC000521663393    0.1100
     46 H46         2.7136    5.7626   41.3477 H       1  ZINC000521663393    0.0900
     47 H47        -0.2912    8.0240   42.9821 H       1  ZINC000521663393    0.1100
     48 H48        -0.0102    6.5118   42.0795 H       1  ZINC000521663393    0.1000
     49 H49        -0.1175    6.1169   44.5447 H       1  ZINC000521663393    0.0800
     50 H50         1.2563    7.2244   44.7664 H       1  ZINC000521663393    0.0500
@<TRIPOS>BOND
     1     1     2    1
     2     1    31    1
     3     1    32    1
     4     1    33    1
     5     2     3    1
     6     2    12    1
     7     2     4    1
     8     4     5    1
     9     5    11   ar
    10     5     6   ar
    11     6     7   ar
    12     6    34    1
    13     7     8    1
    14     7     9   ar
    15     9    10   ar
    16     9    35    1
    17    10    11   ar
    18    10    36    1
    19    11    12    1
    20    12    13    1
    21    12    14    1
    22    14    15   am
    23    14    37    1
    24    15    16    2
    25    15    17    1
    26    17    18    1
    27    17    19    1
    28    17    25    1
    29    19    24   ar
    30    19    20   ar
    31    20    21   ar
    32    20    38    1
    33    21    22   ar
    34    21    39    1
    35    22    23   ar
    36    22    40    1
    37    23    24   ar
    38    23    41    1
    39    24    42    1
    40    25    30    1
    41    25    26    1
    42    26    27    1
    43    26    43    1
    44    26    44    1
    45    27    28    1
    46    27    45    1
    47    27    46    1
    48    28    29    1
    49    29    30    1
    50    29    47    1
    51    29    48    1
    52    30    49    1
    53    30    50    1
@<TRIPOS>SUBSTRUCTURE
     1 ZINC000521663393        1 TEMP              0 ****  ****    0 ROOT


##########                                Name:    ZINC000055987960
##########                DOCK_Rotatable_Bonds:                   6
##########                         Heavy_Atoms:                  28
##########                    Molecular_Weight:             404.868
##########                DOCK_Rotatable_Bonds:                   6
##########                       Formal_Charge:          0.00999941
##########                     HBond_Acceptors:                   7
##########                        HBond_Donors:                   1
##########                         Heavy_Atoms:                  28
##########                          Grid_Score:          -24.639608
##########                     Grid_vdw_energy:          -23.677319
##########                      Grid_es_energy:           -0.962290
##########           Internal_energy_repulsive:           17.353178

@<TRIPOS>MOLECULE
ZINC000055987960
 50 52 1 0 0
SMALL
USER_CHARGES


@<TRIPOS>ATOM
      1 C1         -1.2775    0.4676   46.2504 C.3     1  ZINC000055987960   -0.1800
      2 C2         -1.4787    1.4754   45.1170 C.3     1  ZINC000055987960    0.0700
      3 H3         -2.5333    1.5096   44.8433 H       1  ZINC000055987960    0.1200
      4 C4         -1.0248    2.8644   45.5803 C.3     1  ZINC000055987960    0.0800
      5 N5          0.4349    2.8380   45.7647 N.am    1  ZINC000055987960   -0.6100
      6 C6          0.9983    3.2839   46.9050 C.2     1  ZINC000055987960    0.5700
      7 O7          2.2065    3.2537   47.0383 O.2     1  ZINC000055987960   -0.5300
      8 C8          0.1488    3.8087   47.9918 C.ar    1  ZINC000055987960   -0.1500
      9 C9          0.1063    3.1540   49.2257 C.ar    1  ZINC000055987960   -0.0700
     10 C10        -0.6868    3.6464   50.2375 C.ar    1  ZINC000055987960   -0.1500
     11 C11        -1.4455    4.7946   50.0327 C.ar    1  ZINC000055987960    0.1700
     12 N12        -2.2473    5.2909   51.0598 N.am    1  ZINC000055987960   -0.6700
     13 C13        -3.3287    4.5965   51.4660 C.2     1  ZINC000055987960    0.5200
     14 O14        -3.6043    3.5400   50.9381 O.2     1  ZINC000055987960   -0.5000
     15 C15        -4.1954    5.1329   52.5761 C.3     1  ZINC000055987960   -0.1100
     16 C16        -3.9241    4.3621   53.8423 C.ar    1  ZINC000055987960   -0.1000
     17 C17        -2.6759    4.4244   54.4370 C.ar    1  ZINC000055987960    0.1300
     18 F18        -1.6998    5.1763   53.8826 F       1  ZINC000055987960   -0.1300
     19 C19        -2.4281    3.7159   55.6009 C.ar    1  ZINC000055987960   -0.1500
     20 C20        -3.4267    2.9474   56.1678 C.ar    1  ZINC000055987960   -0.0700
     21 C21        -4.6736    2.8851   55.5739 C.ar    1  ZINC000055987960   -0.1200
     22 C22        -4.9244    3.5963   54.4141 C.ar    1  ZINC000055987960    0.0000
     23 Cl23       -6.4906    3.5179   53.6694 Cl      1  ZINC000055987960   -0.0500
     24 C24        -1.4054    5.4489   48.8055 C.ar    1  ZINC000055987960   -0.1200
     25 C25        -0.6104    4.9647   47.7912 C.ar    1  ZINC000055987960   -0.0500
     26 C26         1.2613    2.3099   44.6676 C.3     1  ZINC000055987960    0.0600
     27 C27         0.6959    0.9479   44.2488 C.3     1  ZINC000055987960    0.0700
     28 H28         0.8471    0.2281   45.0532 H       1  ZINC000055987960    0.0700
     29 C29         1.4129    0.4629   42.9873 C.3     1  ZINC000055987960   -0.1500
     30 O30        -0.7036    1.0797   43.9829 O.3     1  ZINC000055987960   -0.3700
     31 H31        -0.2228    0.4340   46.5237 H       1  ZINC000055987960    0.0600
     32 H32        -1.8674    0.7710   47.1154 H       1  ZINC000055987960    0.0700
     33 H33        -1.5988   -0.5200   45.9198 H       1  ZINC000055987960    0.0700
     34 H34        -1.2861    3.6066   44.8259 H       1  ZINC000055987960    0.0800
     35 H35        -1.5096    3.1132   46.5242 H       1  ZINC000055987960    0.1000
     36 H36         0.6947    2.2625   49.3853 H       1  ZINC000055987960    0.1400
     37 H37        -0.7205    3.1407   51.1913 H       1  ZINC000055987960    0.1300
     38 H38        -2.0269    6.1360   51.4819 H       1  ZINC000055987960    0.4200
     39 H39        -3.9689    6.1870   52.7368 H       1  ZINC000055987960    0.1200
     40 H40        -5.2448    5.0244   52.3024 H       1  ZINC000055987960    0.1200
     41 H41        -1.4542    3.7639   56.0653 H       1  ZINC000055987960    0.1500
     42 H42        -3.2330    2.3948   57.0752 H       1  ZINC000055987960    0.1500
     43 H43        -5.4533    2.2839   56.0175 H       1  ZINC000055987960    0.1400
     44 H44        -1.9958    6.3397   48.6496 H       1  ZINC000055987960    0.1500
     45 H45        -0.5797    5.4730   46.8387 H       1  ZINC000055987960    0.1300
     46 H46         1.2300    2.9963   43.8214 H       1  ZINC000055987960    0.0800
     47 H47         2.2902    2.1916   45.0071 H       1  ZINC000055987960    0.1100
     48 H48         2.4795    0.3663   43.1901 H       1  ZINC000055987960    0.0700
     49 H49         1.0104   -0.5055   42.6902 H       1  ZINC000055987960    0.0700
     50 H50         1.2597    1.1824   42.1829 H       1  ZINC000055987960    0.0700
@<TRIPOS>BOND
     1     1     2    1
     2     1    31    1
     3     1    32    1
     4     1    33    1
     5     2     3    1
     6     2    30    1
     7     2     4    1
     8     4     5    1
     9     4    34    1
    10     4    35    1
    11     5     6   am
    12     5    26    1
    13     6     7    2
    14     6     8    1
    15     8    25   ar
    16     8     9   ar
    17     9    10   ar
    18     9    36    1
    19    10    11   ar
    20    10    37    1
    21    11    12    1
    22    11    24   ar
    23    12    13   am
    24    12    38    1
    25    13    14    2
    26    13    15    1
    27    15    16    1
    28    15    39    1
    29    15    40    1
    30    16    22   ar
    31    16    17   ar
    32    17    18    1
    33    17    19   ar
    34    19    20   ar
    35    19    41    1
    36    20    21   ar
    37    20    42    1
    38    21    22   ar
    39    21    43    1
    40    22    23    1
    41    24    25   ar
    42    24    44    1
    43    25    45    1
    44    26    27    1
    45    26    46    1
    46    26    47    1
    47    27    28    1
    48    27    29    1
    49    27    30    1
    50    29    48    1
    51    29    49    1
    52    29    50    1
@<TRIPOS>SUBSTRUCTURE
     1 ZINC000055987960        1 TEMP              0 ****  ****    0 ROOT


##########                                Name:    ZINC000277311370
##########                DOCK_Rotatable_Bonds:                   5
##########                         Heavy_Atoms:                  17
##########                    Molecular_Weight:             361.036
##########                DOCK_Rotatable_Bonds:                   5
##########                       Formal_Charge:        -7.45058e-08
##########                     HBond_Acceptors:                   4
##########                        HBond_Donors:                   1
##########                         Heavy_Atoms:                  17
##########                          Grid_Score:          -24.600115
##########                     Grid_vdw_energy:          -23.077185
##########                      Grid_es_energy:           -1.522930
##########           Internal_energy_repulsive:            8.071280

@<TRIPOS>MOLECULE
ZINC000277311370
 28 28 1 0 0
SMALL
USER_CHARGES


@<TRIPOS>ATOM
      1 C1         -1.9822    2.2120   46.3317 C.3     1  ZINC000277311370   -0.1500
      2 C2         -2.3764    1.8962   47.7760 C.3     1  ZINC000277311370   -0.1000
      3 C3         -1.5614    0.7026   48.2778 C.3     1  ZINC000277311370   -0.1600
      4 C4         -2.0949    3.1135   48.6591 C.3     1  ZINC000277311370    0.2500
      5 H5         -2.6640    3.9678   48.2925 H       1  ZINC000277311370    0.1400
      6 C6         -0.6574    3.4274   48.6183 C.1     1  ZINC000277311370    0.1900
      7 N7          0.4520    3.6697   48.5868 N.1     1  ZINC000277311370   -0.4100
      8 N8         -2.4914    2.8183   50.0383 N.am    1  ZINC000277311370   -0.7000
      9 C9         -2.7176    3.8256   50.9047 C.2     1  ZINC000277311370    0.5700
     10 O10        -2.5943    4.9787   50.5415 O.2     1  ZINC000277311370   -0.4900
     11 C11        -3.1166    3.5272   52.2994 C.ar    1  ZINC000277311370    0.1100
     12 N12        -4.4023    3.3924   52.6017 N.ar    1  ZINC000277311370   -0.4300
     13 C13        -4.7987    3.1267   53.8280 C.ar    1  ZINC000277311370    0.1300
     14 Br14       -6.6455    2.9470   54.1925 Br      1  ZINC000277311370    0.0200
     15 C15        -3.8806    2.9766   54.8569 C.ar    1  ZINC000277311370   -0.1100
     16 C16        -2.5286    3.1090   54.5854 C.ar    1  ZINC000277311370   -0.0400
     17 C17        -2.1390    3.3844   53.2826 C.ar    1  ZINC000277311370   -0.0900
     18 Br18       -0.3083    3.5765   52.8495 Br      1  ZINC000277311370    0.0300
     19 H19        -2.1827    1.3448   45.7025 H       1  ZINC000277311370    0.0700
     20 H20        -2.5629    3.0623   45.9743 H       1  ZINC000277311370    0.0700
     21 H21        -0.9202    2.4537   46.2895 H       1  ZINC000277311370    0.0600
     22 H22        -3.4385    1.6545   47.8182 H       1  ZINC000277311370    0.1000
     23 H23        -0.4994    0.9443   48.2356 H       1  ZINC000277311370    0.0600
     24 H24        -1.8421    0.4777   49.3068 H       1  ZINC000277311370    0.0600
     25 H25        -1.7619   -0.1646   47.6486 H       1  ZINC000277311370    0.0700
     26 H26        -2.5910    1.8979   50.3279 H       1  ZINC000277311370    0.4200
     27 H27        -4.2165    2.7587   55.8598 H       1  ZINC000277311370    0.1600
     28 H28        -1.7944    2.9965   55.3694 H       1  ZINC000277311370    0.1700
@<TRIPOS>BOND
     1     1     2    1
     2     1    19    1
     3     1    20    1
     4     1    21    1
     5     2     3    1
     6     2     4    1
     7     2    22    1
     8     3    23    1
     9     3    24    1
    10     3    25    1
    11     4     5    1
    12     4     6    1
    13     4     8    1
    14     6     7    3
    15     8     9   am
    16     8    26    1
    17     9    10    2
    18     9    11    1
    19    11    17   ar
    20    11    12   ar
    21    12    13   ar
    22    13    14    1
    23    13    15   ar
    24    15    16   ar
    25    15    27    1
    26    16    17   ar
    27    16    28    1
    28    17    18    1
@<TRIPOS>SUBSTRUCTURE
     1 ZINC000277311370        1 TEMP              0 ****  ****    0 ROOT


##########                                Name:    ZINC000279974681
##########                DOCK_Rotatable_Bonds:                   4
##########                         Heavy_Atoms:                  23
##########                    Molecular_Weight:              338.79
##########                DOCK_Rotatable_Bonds:                   4
##########                       Formal_Charge:           0.0100008
##########                     HBond_Acceptors:                   7
##########                        HBond_Donors:                   1
##########                         Heavy_Atoms:                  23
##########                          Grid_Score:          -24.380100
##########                     Grid_vdw_energy:          -23.350214
##########                      Grid_es_energy:           -1.029887
##########           Internal_energy_repulsive:            9.947788

@<TRIPOS>MOLECULE
ZINC000279974681
 42 45 1 0 0
SMALL
USER_CHARGES


@<TRIPOS>ATOM
      1 C1         -2.0269    3.1491   55.9979 C.3     1  ZINC000279974681   -0.1400
      2 C2         -2.6706    3.1255   54.6101 C.3     1  ZINC000279974681    0.0700
      3 H3         -2.5396    2.1393   54.1647 H       1  ZINC000279974681    0.0600
      4 C4         -2.0064    4.1818   53.7196 C.3     1  ZINC000279974681    0.1000
      5 N5         -2.7625    4.2689   52.4601 N.am    1  ZINC000279974681   -0.6300
      6 C6         -2.1361    4.1992   51.2687 C.2     1  ZINC000279974681    0.7100
      7 O7         -0.9288    4.0623   51.2236 O.2     1  ZINC000279974681   -0.5600
      8 N8         -2.8482    4.2812   50.1273 N.am    1  ZINC000279974681   -0.6700
      9 C9         -2.1965    4.2087   48.8880 C.ar    1  ZINC000279974681    0.2000
     10 C10        -1.6932    5.3604   48.3001 C.ar    1  ZINC000279974681   -0.1200
     11 C11        -1.0491    5.2882   47.0760 C.ar    1  ZINC000279974681    0.0700
     12 C12        -0.9077    4.0590   46.4370 C.ar    1  ZINC000279974681    0.0200
     13 C13        -1.4120    2.9109   47.0265 C.ar    1  ZINC000279974681   -0.0700
     14 C14        -2.0497    2.9827   48.2511 C.ar    1  ZINC000279974681   -0.0700
     15 Cl15       -2.6803    1.5422   48.9865 Cl      1  ZINC000279974681   -0.0500
     16 O16        -0.2446    4.2539   45.2587 O.3     1  ZINC000279974681   -0.3000
     17 C17        -0.3432    5.6651   44.9910 C.3     1  ZINC000279974681    0.2100
     18 O18        -0.4748    6.2528   46.2988 O.3     1  ZINC000279974681   -0.3000
     19 C19        -4.2225    4.4338   52.5398 C.3     1  ZINC000279974681    0.0800
     20 C20        -4.7787    3.3652   53.4879 C.3     1  ZINC000279974681    0.1100
     21 H21        -4.6562    2.3800   53.0379 H       1  ZINC000279974681    0.0700
     22 C22        -6.2641    3.6302   53.7413 C.3     1  ZINC000279974681   -0.1600
     23 C23        -6.7359    3.6733   55.1961 C.3     1  ZINC000279974681   -0.1700
     24 C24        -6.6440    4.9661   54.3831 C.3     1  ZINC000279974681   -0.1600
     25 O25        -4.0657    3.4158   54.7259 O.3     1  ZINC000279974681   -0.3600
     26 H26        -2.5008    2.3990   56.6311 H       1  ZINC000279974681    0.0700
     27 H27        -0.9629    2.9295   55.9087 H       1  ZINC000279974681    0.0800
     28 H28        -2.1582    4.1356   56.4426 H       1  ZINC000279974681    0.0700
     29 H29        -2.0203    5.1482   54.2235 H       1  ZINC000279974681    0.0800
     30 H30        -0.9770    3.8909   53.5104 H       1  ZINC000279974681    0.1100
     31 H31        -3.8113    4.3903   50.1633 H       1  ZINC000279974681    0.4100
     32 H32        -1.8040    6.3130   48.7969 H       1  ZINC000279974681    0.1800
     33 H33        -1.3027    1.9577   46.5307 H       1  ZINC000279974681    0.1500
     34 H34         0.5598    6.0254   44.4982 H       1  ZINC000279974681    0.1400
     35 H35        -1.2232    5.8793   44.3845 H       1  ZINC000279974681    0.0900
     36 H36        -4.4595    5.4255   52.9250 H       1  ZINC000279974681    0.0900
     37 H37        -4.6605    4.3098   51.5494 H       1  ZINC000279974681    0.0900
     38 H38        -6.9486    3.2144   53.0019 H       1  ZINC000279974681    0.1100
     39 H39        -7.7311    3.2857   55.4142 H       1  ZINC000279974681    0.1000
     40 H40        -5.9881    3.5129   55.9727 H       1  ZINC000279974681    0.1000
     41 H41        -5.8356    5.6563   54.6248 H       1  ZINC000279974681    0.1000
     42 H42        -7.5785    5.4290   54.0663 H       1  ZINC000279974681    0.1000
@<TRIPOS>BOND
     1     1     2    1
     2     1    26    1
     3     1    27    1
     4     1    28    1
     5     2     3    1
     6     2    25    1
     7     2     4    1
     8     4     5    1
     9     4    29    1
    10     4    30    1
    11     5     6   am
    12     5    19    1
    13     6     7    2
    14     6     8   am
    15     8     9    1
    16     8    31    1
    17     9    14   ar
    18     9    10   ar
    19    10    11   ar
    20    10    32    1
    21    11    18    1
    22    11    12   ar
    23    12    13   ar
    24    12    16    1
    25    13    14   ar
    26    13    33    1
    27    14    15    1
    28    16    17    1
    29    17    18    1
    30    17    34    1
    31    17    35    1
    32    19    20    1
    33    19    36    1
    34    19    37    1
    35    20    21    1
    36    20    22    1
    37    20    25    1
    38    22    24    1
    39    22    23    1
    40    22    38    1
    41    23    24    1
    42    23    39    1
    43    23    40    1
    44    24    41    1
    45    24    42    1
@<TRIPOS>SUBSTRUCTURE
     1 ZINC000279974681        1 TEMP              0 ****  ****    0 ROOT


##########                                Name:    ZINC001010141213
##########                DOCK_Rotatable_Bonds:                   4
##########                         Heavy_Atoms:                  24
##########                    Molecular_Weight:             330.346
##########                DOCK_Rotatable_Bonds:                   4
##########                       Formal_Charge:          -0.0100003
##########                     HBond_Acceptors:                   9
##########                        HBond_Donors:                   1
##########                         Heavy_Atoms:                  24
##########                          Grid_Score:          -24.227226
##########                     Grid_vdw_energy:          -23.913105
##########                      Grid_es_energy:           -0.314121
##########           Internal_energy_repulsive:           13.953353

@<TRIPOS>MOLECULE
ZINC001010141213
 42 44 1 0 0
SMALL
USER_CHARGES


@<TRIPOS>ATOM
      1 C1          0.4807    4.2727   53.3177 C.3     1  ZINC001010141213   -0.0800
      2 C2         -0.9560    3.8530   53.4930 C.2     1  ZINC001010141213   -0.1500
      3 C3         -2.0750    4.4314   52.9198 C.2     1  ZINC001010141213   -0.0400
      4 C4         -2.1037    5.5881   52.0104 C.2     1  ZINC001010141213    0.6000
      5 O5         -2.1112    6.7172   52.4625 O.2     1  ZINC001010141213   -0.5100
      6 N6         -2.1217    5.3963   50.6765 N.am    1  ZINC001010141213   -0.6100
      7 C7         -2.1442    6.5420   49.7563 C.3     1  ZINC001010141213    0.0900
      8 C8         -0.9629    6.4147   48.7864 C.3     1  ZINC001010141213    0.0700
      9 N9         -0.9598    5.0561   48.2259 N.am    1  ZINC001010141213   -0.6000
     10 C10        -0.9767    4.8644   46.8920 C.2     1  ZINC001010141213    0.5900
     11 O11        -0.9947    5.8198   46.1408 O.2     1  ZINC001010141213   -0.5200
     12 C12        -0.9733    3.4915   46.3422 C.2     1  ZINC001010141213    0.0300
     13 N13        -2.0931    2.9559   45.9110 N.2     1  ZINC001010141213   -0.1800
     14 N14        -2.1425    1.7685   45.4254 N.am    1  ZINC001010141213   -0.4400
     15 C15        -1.0447    0.9958   45.3279 C.2     1  ZINC001010141213    0.4800
     16 O16        -1.1244   -0.1284   44.8613 O.2     1  ZINC001010141213   -0.5100
     17 C17         0.2007    1.4958   45.7692 C.2     1  ZINC001010141213   -0.1800
     18 C18         0.2374    2.7605   46.2770 C.2     1  ZINC001010141213   -0.0400
     19 C19        -0.9373    3.9104   49.1461 C.3     1  ZINC001010141213    0.1000
     20 C20        -2.1129    4.0377   50.1159 C.3     1  ZINC001010141213    0.1000
     21 N21        -3.1476    3.7135   53.3673 N.pl3   1  ZINC001010141213   -0.2700
     22 C22        -4.5449    3.9737   53.0128 C.3     1  ZINC001010141213    0.0900
     23 N23        -2.7438    2.7750   54.1458 N.2     1  ZINC001010141213   -0.2800
     24 C24        -1.4406    2.7938   54.2637 C.2     1  ZINC001010141213    0.0100
     25 H25         0.9118    3.7461   52.4662 H       1  ZINC001010141213    0.0700
     26 H26         0.5264    5.3474   53.1410 H       1  ZINC001010141213    0.0600
     27 H27         1.0432    4.0285   54.2188 H       1  ZINC001010141213    0.0700
     28 H28        -3.0791    6.5428   49.1960 H       1  ZINC001010141213    0.0800
     29 H29        -2.0536    7.4684   50.3234 H       1  ZINC001010141213    0.1000
     30 H30        -1.0703    7.1421   47.9817 H       1  ZINC001010141213    0.1400
     31 H31        -0.0298    6.5921   49.3209 H       1  ZINC001010141213    0.0800
     32 H32        -2.9943    1.4185   45.1206 H       1  ZINC001010141213    0.4500
     33 H33         1.0966    0.8965   45.7023 H       1  ZINC001010141213    0.1700
     34 H34         1.1640    3.1902   46.6278 H       1  ZINC001010141213    0.1700
     35 H35        -1.0278    2.9839   48.5790 H       1  ZINC001010141213    0.1100
     36 H36        -0.0023    3.9095   49.7064 H       1  ZINC001010141213    0.0800
     37 H37        -2.0041    3.3098   50.9200 H       1  ZINC001010141213    0.1100
     38 H38        -3.0473    3.8614   49.5833 H       1  ZINC001010141213    0.0800
     39 H39        -4.8306    3.3412   52.1723 H       1  ZINC001010141213    0.0900
     40 H40        -5.1839    3.7524   53.8678 H       1  ZINC001010141213    0.1000
     41 H41        -4.6602    5.0213   52.7347 H       1  ZINC001010141213    0.0900
     42 H42        -0.8460    2.1151   54.8572 H       1  ZINC001010141213    0.1900
@<TRIPOS>BOND
     1     1     2    1
     2     1    25    1
     3     1    26    1
     4     1    27    1
     5     2    24    1
     6     2     3    2
     7     3     4    1
     8     3    21    1
     9     4     5    2
    10     4     6   am
    11     6    20    1
    12     6     7    1
    13     7     8    1
    14     7    28    1
    15     7    29    1
    16     8     9    1
    17     8    30    1
    18     8    31    1
    19     9    10   am
    20     9    19    1
    21    10    11    2
    22    10    12    1
    23    12    18    1
    24    12    13    2
    25    13    14    1
    26    14    15   am
    27    14    32    1
    28    15    16    2
    29    15    17    1
    30    17    18    2
    31    17    33    1
    32    18    34    1
    33    19    20    1
    34    19    35    1
    35    19    36    1
    36    20    37    1
    37    20    38    1
    38    21    22    1
    39    21    23    1
    40    22    39    1
    41    22    40    1
    42    22    41    1
    43    23    24    2
    44    24    42    1
@<TRIPOS>SUBSTRUCTURE
     1 ZINC001010141213        1 TEMP              0 ****  ****    0 ROOT


##########                                Name:    ZINC000541315701
##########                DOCK_Rotatable_Bonds:                   4
##########                         Heavy_Atoms:                  25
##########                    Molecular_Weight:             422.709
##########                DOCK_Rotatable_Bonds:                   4
##########                       Formal_Charge:           0.0300003
##########                     HBond_Acceptors:                   6
##########                        HBond_Donors:                   0
##########                         Heavy_Atoms:                  25
##########                          Grid_Score:          -24.195288
##########                     Grid_vdw_energy:          -23.203726
##########                      Grid_es_energy:           -0.991562
##########           Internal_energy_repulsive:           28.399519

@<TRIPOS>MOLECULE
ZINC000541315701
 42 44 1 0 0
SMALL
USER_CHARGES


@<TRIPOS>ATOM
      1 C1         -0.8214    0.2673   48.6973 C.3     1  ZINC000541315701    0.0800
      2 N2         -0.3888    1.4327   47.9221 N.am    1  ZINC000541315701   -0.5700
      3 C3         -0.2663    2.6333   48.5219 C.2     1  ZINC000541315701    0.5400
      4 O4          0.0918    3.5981   47.8802 O.2     1  ZINC000541315701   -0.5000
      5 C5         -0.5741    2.7770   49.9902 C.3     1  ZINC000541315701   -0.1100
      6 H6         -1.0702    1.8846   50.3718 H       1  ZINC000541315701    0.1300
      7 C7          0.7084    3.0850   50.7970 C.3     1  ZINC000541315701   -0.1500
      8 C8          0.7442    4.5955   50.8744 C.2     1  ZINC000541315701    0.5200
      9 O9          1.7183    5.2527   51.1746 O.2     1  ZINC000541315701   -0.5200
     10 N10        -0.4605    5.1031   50.5616 N.am    1  ZINC000541315701   -0.6100
     11 C11        -0.7714    6.5343   50.5299 C.3     1  ZINC000541315701    0.0900
     12 C12        -1.4250    4.0387   50.2558 C.3     1  ZINC000541315701    0.1900
     13 H13        -2.0036    4.2975   49.3689 H       1  ZINC000541315701    0.1100
     14 C14        -2.3433    3.8140   51.4293 C.ar    1  ZINC000541315701   -0.0900
     15 C15        -3.5332    3.1326   51.2550 C.ar    1  ZINC000541315701   -0.1000
     16 C16        -4.3761    2.9256   52.3313 C.ar    1  ZINC000541315701   -0.1000
     17 C17        -4.0294    3.4004   53.5819 C.ar    1  ZINC000541315701   -0.1000
     18 C18        -2.8383    4.0825   53.7571 C.ar    1  ZINC000541315701   -0.0300
     19 Cl19       -2.4019    4.6786   55.3280 Cl      1  ZINC000541315701   -0.0600
     20 C20        -1.9928    4.2843   52.6810 C.ar    1  ZINC000541315701   -0.0900
     21 C21        -0.1040    1.2997   46.5636 C.ar    1  ZINC000541315701    0.3800
     22 N22        -1.0901    1.3237   45.6815 N.ar    1  ZINC000541315701   -0.4700
     23 C23        -0.8644    1.2017   44.3873 C.ar    1  ZINC000541315701    0.1300
     24 C24         0.4192    1.0433   43.9039 C.ar    1  ZINC000541315701   -0.1600
     25 C25         1.4826    1.0128   44.7959 C.ar    1  ZINC000541315701   -0.0400
     26 C26         1.2148    1.1487   46.1473 C.ar    1  ZINC000541315701   -0.1300
     27 Br27        2.6211    1.1158   47.4111 Br      1  ZINC000541315701   -0.0200
     28 H28        -1.5316    0.5826   49.4617 H       1  ZINC000541315701    0.0900
     29 H29        -1.2984   -0.4539   48.0336 H       1  ZINC000541315701    0.0800
     30 H30         0.0439   -0.1940   49.1733 H       1  ZINC000541315701    0.0700
     31 H31         0.6438    2.6533   51.7957 H       1  ZINC000541315701    0.1200
     32 H32         1.5877    2.7089   50.2739 H       1  ZINC000541315701    0.1100
     33 H33         0.1178    7.1054   50.7968 H       1  ZINC000541315701    0.0900
     34 H34        -1.0952    6.8137   49.5272 H       1  ZINC000541315701    0.0700
     35 H35        -1.5684    6.7488   51.2419 H       1  ZINC000541315701    0.0600
     36 H36        -3.8049    2.7621   50.2775 H       1  ZINC000541315701    0.1300
     37 H37        -5.3057    2.3932   52.1945 H       1  ZINC000541315701    0.1400
     38 H38        -4.6882    3.2392   54.4225 H       1  ZINC000541315701    0.1400
     39 H39        -1.0631    4.8166   52.8171 H       1  ZINC000541315701    0.1400
     40 H40        -1.6947    1.2256   43.6969 H       1  ZINC000541315701    0.1700
     41 H41         0.5941    0.9440   42.8428 H       1  ZINC000541315701    0.1500
     42 H42         2.4959    0.8901   44.4432 H       1  ZINC000541315701    0.1500
@<TRIPOS>BOND
     1     1     2    1
     2     1    28    1
     3     1    29    1
     4     1    30    1
     5     2     3   am
     6     2    21    1
     7     3     4    2
     8     3     5    1
     9     5     6    1
    10     5    12    1
    11     5     7    1
    12     7     8    1
    13     7    31    1
    14     7    32    1
    15     8     9    2
    16     8    10   am
    17    10    11    1
    18    10    12    1
    19    11    33    1
    20    11    34    1
    21    11    35    1
    22    12    13    1
    23    12    14    1
    24    14    20   ar
    25    14    15   ar
    26    15    16   ar
    27    15    36    1
    28    16    17   ar
    29    16    37    1
    30    17    18   ar
    31    17    38    1
    32    18    19    1
    33    18    20   ar
    34    20    39    1
    35    21    26   ar
    36    21    22   ar
    37    22    23   ar
    38    23    24   ar
    39    23    40    1
    40    24    25   ar
    41    24    41    1
    42    25    26   ar
    43    25    42    1
    44    26    27    1
@<TRIPOS>SUBSTRUCTURE
     1 ZINC000541315701        1 TEMP              0 ****  ****    0 ROOT


##########                                Name:    ZINC000326056918
##########                DOCK_Rotatable_Bonds:                   6
##########                         Heavy_Atoms:                  24
##########                    Molecular_Weight:             408.326
##########                DOCK_Rotatable_Bonds:                   6
##########                       Formal_Charge:         -0.00999978
##########                     HBond_Acceptors:                   9
##########                        HBond_Donors:                   0
##########                         Heavy_Atoms:                  24
##########                          Grid_Score:          -24.110167
##########                     Grid_vdw_energy:          -23.383232
##########                      Grid_es_energy:           -0.726934
##########           Internal_energy_repulsive:           25.453604

@<TRIPOS>MOLECULE
ZINC000326056918
 39 40 1 0 0
SMALL
USER_CHARGES


@<TRIPOS>ATOM
      1 C1          4.4788    3.0362   48.1913 C.3     1  ZINC000326056918    0.0400
      2 O2          3.5089    2.2414   47.4594 O.3     1  ZINC000326056918   -0.3500
      3 C3          2.8096    2.8680   46.4908 C.2     1  ZINC000326056918    0.5000
      4 O4          3.0064    4.0466   46.2641 O.2     1  ZINC000326056918   -0.4300
      5 C5          1.8137    2.1293   45.7125 C.2     1  ZINC000326056918   -0.1600
      6 C6          0.7010    1.5196   46.2226 C.2     1  ZINC000326056918   -0.6200
      7 S7          0.2887    1.5324   47.9357 S.o2    1  ZINC000326056918    2.6900
      8 O8          0.5406    0.2201   48.4188 O.2     1  ZINC000326056918   -0.9100
      9 O9          0.8962    2.6932   48.4860 O.2     1  ZINC000326056918   -0.9400
     10 N10        -1.3474    1.7647   48.0444 N.am    1  ZINC000326056918   -0.9900
     11 C11        -2.1886    0.7575   48.6956 C.3     1  ZINC000326056918    0.0900
     12 C12        -1.9536    2.9774   47.4892 C.3     1  ZINC000326056918    0.1500
     13 C13        -2.0563    4.0261   48.5665 C.ar    1  ZINC000326056918   -0.0900
     14 C14        -2.7777    3.7668   49.7164 C.ar    1  ZINC000326056918   -0.0800
     15 C15        -2.8727    4.7284   50.7050 C.ar    1  ZINC000326056918   -0.1100
     16 C16        -2.2454    5.9508   50.5438 C.ar    1  ZINC000326056918   -0.0200
     17 Cl17       -2.3645    7.1581   51.7856 Cl      1  ZINC000326056918   -0.0600
     18 C18        -1.5227    6.2107   49.3931 C.ar    1  ZINC000326056918   -0.1100
     19 C19        -1.4236    5.2463   48.4067 C.ar    1  ZINC000326056918   -0.0300
     20 Cl20       -0.5165    5.5714   46.9626 Cl      1  ZINC000326056918   -0.0100
     21 C21        -0.0640    0.8967   45.2660 C.2     1  ZINC000326056918   -0.0400
     22 C22        -1.3361    0.1616   45.6007 C.3     1  ZINC000326056918   -0.1100
     23 C23         0.4032    0.9911   44.0151 C.2     1  ZINC000326056918   -0.2600
     24 S24         1.8525    1.8902   43.9709 S.3     1  ZINC000326056918    0.3100
     25 H25         4.9697    2.4128   48.9387 H       1  ZINC000326056918    0.1100
     26 H26         5.2239    3.4283   47.4991 H       1  ZINC000326056918    0.0700
     27 H27         3.9709    3.8643   48.6859 H       1  ZINC000326056918    0.0700
     28 H28        -2.1966    0.9315   49.7717 H       1  ZINC000326056918    0.0600
     29 H29        -3.2051    0.8277   48.3087 H       1  ZINC000326056918    0.0700
     30 H30        -1.7898   -0.2362   48.4913 H       1  ZINC000326056918    0.0900
     31 H31        -1.3344    3.3528   46.6745 H       1  ZINC000326056918    0.1100
     32 H32        -2.9494    2.7456   47.1115 H       1  ZINC000326056918    0.0900
     33 H33        -3.2676    2.8126   49.8426 H       1  ZINC000326056918    0.1400
     34 H34        -3.4372    4.5255   51.6031 H       1  ZINC000326056918    0.1400
     35 H35        -1.0327    7.1650   49.2668 H       1  ZINC000326056918    0.1500
     36 H36        -2.1608    0.8717   45.6620 H       1  ZINC000326056918    0.0900
     37 H37        -1.5464   -0.5732   44.8234 H       1  ZINC000326056918    0.0700
     38 H38        -1.2214   -0.3456   46.5587 H       1  ZINC000326056918    0.0900
     39 H39        -0.0756    0.5588   43.1489 H       1  ZINC000326056918    0.1800
@<TRIPOS>BOND
     1     1     2    1
     2     1    25    1
     3     1    26    1
     4     1    27    1
     5     2     3    1
     6     3     4    2
     7     3     5    1
     8     5    24    1
     9     5     6    2
    10     6     7    1
    11     6    21    1
    12     7     8    2
    13     7     9    2
    14     7    10   am
    15    10    11    1
    16    10    12    1
    17    11    28    1
    18    11    29    1
    19    11    30    1
    20    12    13    1
    21    12    31    1
    22    12    32    1
    23    13    19   ar
    24    13    14   ar
    25    14    15   ar
    26    14    33    1
    27    15    16   ar
    28    15    34    1
    29    16    17    1
    30    16    18   ar
    31    18    19   ar
    32    18    35    1
    33    19    20    1
    34    21    22    1
    35    21    23    2
    36    22    36    1
    37    22    37    1
    38    22    38    1
    39    23    24    1
    40    23    39    1
@<TRIPOS>SUBSTRUCTURE
     1 ZINC000326056918        1 TEMP              0 ****  ****    0 ROOT


##########                                Name:    ZINC000931749147
##########                DOCK_Rotatable_Bonds:                   5
##########                         Heavy_Atoms:                  25
##########                    Molecular_Weight:             354.397
##########                DOCK_Rotatable_Bonds:                   5
##########                       Formal_Charge:        -4.76837e-07
##########                     HBond_Acceptors:                   7
##########                        HBond_Donors:                   1
##########                         Heavy_Atoms:                  25
##########                          Grid_Score:          -23.994808
##########                     Grid_vdw_energy:          -24.468424
##########                      Grid_es_energy:            0.473616
##########           Internal_energy_repulsive:           82.991791

@<TRIPOS>MOLECULE
ZINC000931749147
 49 51 1 0 0
SMALL
USER_CHARGES


@<TRIPOS>ATOM
      1 C1         -1.0826    5.1015   48.2026 C.3     1  ZINC000931749147   -0.1100
      2 C2         -1.3869    3.6446   47.9660 C.ar    1  ZINC000931749147   -0.1300
      3 C3         -1.4105    2.7576   49.0335 C.ar    1  ZINC000931749147    0.1800
      4 N4         -1.1519    3.2157   50.3314 N.am    1  ZINC000931749147   -0.6800
      5 C5         -2.1630    3.3512   51.2121 C.2     1  ZINC000931749147    0.7100
      6 O6         -3.2998    3.0756   50.8799 O.2     1  ZINC000931749147   -0.5500
      7 N7         -1.9142    3.7920   52.4612 N.am    1  ZINC000931749147   -0.6200
      8 C8         -0.5470    4.1316   52.8863 C.3     1  ZINC000931749147    0.0700
      9 C9         -0.2583    3.4102   54.2078 C.3     1  ZINC000931749147    0.0500
     10 O10        -1.3032    3.6991   55.1398 O.3     1  ZINC000931749147   -0.3700
     11 C11        -2.5937    3.2361   54.7344 C.3     1  ZINC000931749147    0.0500
     12 C12        -3.0026    3.9539   53.4383 C.3     1  ZINC000931749147    0.1300
     13 H13        -3.1670    5.0122   53.6409 H       1  ZINC000931749147    0.0900
     14 C14        -4.2858    3.3296   52.8863 C.3     1  ZINC000931749147   -0.1100
     15 C15        -5.3452    3.2823   53.9892 C.3     1  ZINC000931749147   -0.1000
     16 C16        -5.6492    4.7049   54.4691 C.3     1  ZINC000931749147   -0.1500
     17 C17        -6.7654    4.6544   55.5155 C.3     1  ZINC000931749147    0.0600
     18 O18        -7.9204    4.0324   54.9486 O.3     1  ZINC000931749147   -0.3800
     19 C19        -7.7084    2.6841   54.5253 C.3     1  ZINC000931749147    0.0600
     20 C20        -6.6300    2.6553   53.4390 C.3     1  ZINC000931749147   -0.1500
     21 C21        -1.6911    1.4156   48.8130 C.ar    1  ZINC000931749147   -0.1200
     22 C22        -1.9465    0.9647   47.5326 C.ar    1  ZINC000931749147   -0.1100
     23 C23        -1.9231    1.8492   46.4681 C.ar    1  ZINC000931749147    0.0500
     24 F24        -2.1732    1.4059   45.2167 F       1  ZINC000931749147   -0.1300
     25 C25        -1.6488    3.1910   46.6857 C.ar    1  ZINC000931749147    0.0900
     26 F26        -1.6262    4.0531   45.6459 F       1  ZINC000931749147   -0.1200
     27 H27        -2.0102    5.6394   48.3982 H       1  ZINC000931749147    0.0800
     28 H28        -0.4181    5.1991   49.0611 H       1  ZINC000931749147    0.0700
     29 H29        -0.5993    5.5197   47.3197 H       1  ZINC000931749147    0.0800
     30 H30        -0.2451    3.4355   50.5966 H       1  ZINC000931749147    0.4100
     31 H31         0.1647    3.8065   52.1275 H       1  ZINC000931749147    0.0800
     32 H32        -0.4643    5.2089   53.0305 H       1  ZINC000931749147    0.0900
     33 H33        -0.2130    2.3352   54.0333 H       1  ZINC000931749147    0.0600
     34 H34         0.6941    3.7549   54.6103 H       1  ZINC000931749147    0.1100
     35 H35        -2.5568    2.1604   54.5620 H       1  ZINC000931749147    0.0600
     36 H36        -3.3212    3.4555   55.5158 H       1  ZINC000931749147    0.1100
     37 H37        -4.6537    3.9304   52.0547 H       1  ZINC000931749147    0.1100
     38 H38        -4.0773    2.3176   52.5391 H       1  ZINC000931749147    0.0700
     39 H39        -4.9766    2.6855   54.8235 H       1  ZINC000931749147    0.0700
     40 H40        -4.7533    5.1388   54.9129 H       1  ZINC000931749147    0.0700
     41 H41        -5.9697    5.3138   53.6237 H       1  ZINC000931749147    0.0700
     42 H42        -6.4294    4.0790   56.3782 H       1  ZINC000931749147    0.0500
     43 H43        -7.0156    5.6679   55.8294 H       1  ZINC000931749147    0.0900
     44 H44        -7.3846    2.0830   55.3749 H       1  ZINC000931749147    0.0500
     45 H45        -8.6378    2.2781   54.1257 H       1  ZINC000931749147    0.0900
     46 H46        -6.9703    3.2229   52.5728 H       1  ZINC000931749147    0.0700
     47 H47        -6.4355    1.6236   53.1461 H       1  ZINC000931749147    0.0700
     48 H48        -1.7094    0.7244   49.6426 H       1  ZINC000931749147    0.1800
     49 H49        -2.1645   -0.0793   47.3618 H       1  ZINC000931749147    0.1500
@<TRIPOS>BOND
     1     1     2    1
     2     1    27    1
     3     1    28    1
     4     1    29    1
     5     2    25   ar
     6     2     3   ar
     7     3     4    1
     8     3    21   ar
     9     4     5   am
    10     4    30    1
    11     5     6    2
    12     5     7   am
    13     7    12    1
    14     7     8    1
    15     8     9    1
    16     8    31    1
    17     8    32    1
    18     9    10    1
    19     9    33    1
    20     9    34    1
    21    10    11    1
    22    11    12    1
    23    11    35    1
    24    11    36    1
    25    12    13    1
    26    12    14    1
    27    14    15    1
    28    14    37    1
    29    14    38    1
    30    15    20    1
    31    15    16    1
    32    15    39    1
    33    16    17    1
    34    16    40    1
    35    16    41    1
    36    17    18    1
    37    17    42    1
    38    17    43    1
    39    18    19    1
    40    19    20    1
    41    19    44    1
    42    19    45    1
    43    20    46    1
    44    20    47    1
    45    21    22   ar
    46    21    48    1
    47    22    23   ar
    48    22    49    1
    49    23    24    1
    50    23    25   ar
    51    25    26    1
@<TRIPOS>SUBSTRUCTURE
     1 ZINC000931749147        1 TEMP              0 ****  ****    0 ROOT


##########                                Name:    ZINC000364058410
##########                DOCK_Rotatable_Bonds:                   5
##########                         Heavy_Atoms:                  25
##########                    Molecular_Weight:             358.464
##########                DOCK_Rotatable_Bonds:                   5
##########                       Formal_Charge:           0.0100002
##########                     HBond_Acceptors:                   7
##########                        HBond_Donors:                   0
##########                         Heavy_Atoms:                  25
##########                          Grid_Score:          -23.895241
##########                     Grid_vdw_energy:          -23.951082
##########                      Grid_es_energy:            0.055842
##########           Internal_energy_repulsive:           60.950710

@<TRIPOS>MOLECULE
ZINC000364058410
 47 50 1 0 0
SMALL
USER_CHARGES


@<TRIPOS>ATOM
      1 C1         -4.7341    2.7906   55.9524 C.3     1  ZINC000364058410   -0.0700
      2 C2         -4.2373    3.1988   54.5894 C.2     1  ZINC000364058410   -0.2500
      3 C3         -3.1351    3.9407   54.3332 C.2     1  ZINC000364058410    0.0800
      4 N4         -3.0377    4.0840   52.9948 N.pl3   1  ZINC000364058410   -0.3600
      5 C5         -1.9895    4.8169   52.2805 C.3     1  ZINC000364058410    0.1300
      6 C6         -0.9391    3.9074   51.6176 C.3     1  ZINC000364058410    0.1100
      7 N7         -1.8079    3.9421   50.4251 N.am    1  ZINC000364058410   -0.6500
      8 C8         -1.9972    3.1250   49.3702 C.2     1  ZINC000364058410    0.5600
      9 O9         -2.8034    3.4185   48.5130 O.2     1  ZINC000364058410   -0.5000
     10 C10        -1.2074    1.8467   49.2559 C.3     1  ZINC000364058410    0.1400
     11 H11        -0.8287    1.5621   50.2377 H       1  ZINC000364058410    0.0900
     12 C12        -2.1077    0.7337   48.7104 C.3     1  ZINC000364058410   -0.1200
     13 C13        -1.2680   -0.5222   48.4655 C.3     1  ZINC000364058410   -0.1200
     14 C14        -0.1878   -0.2206   47.4242 C.3     1  ZINC000364058410   -0.1400
     15 C15         0.7342    0.8815   47.9553 C.3     1  ZINC000364058410    0.1000
     16 N16        -0.0820    2.0440   48.3323 N.am    1  ZINC000364058410   -0.6000
     17 C17         0.1936    3.2665   47.8360 C.2     1  ZINC000364058410    0.5900
     18 O18        -0.4900    4.2212   48.1560 O.2     1  ZINC000364058410   -0.4900
     19 C19         1.3164    3.4460   46.9110 C.2     1  ZINC000364058410   -0.2600
     20 C20         1.2103    3.6193   45.5598 C.2     1  ZINC000364058410   -0.0600
     21 C21         2.4253    3.7642   44.9332 C.2     1  ZINC000364058410   -0.1400
     22 C22         3.4906    3.7116   45.7413 C.2     1  ZINC000364058410   -0.2400
     23 S23         3.0151    3.4806   47.3635 S.3     1  ZINC000364058410    0.2100
     24 C24        -2.3863    5.2311   50.8519 C.3     1  ZINC000364058410    0.0900
     25 N25        -4.1158    3.4078   52.4093 N.2     1  ZINC000364058410   -0.3000
     26 C26        -4.8307    2.8726   53.3656 C.2     1  ZINC000364058410    0.0500
     27 H27        -4.2851    1.8378   56.2325 H       1  ZINC000364058410    0.0600
     28 H28        -4.4578    3.5511   56.6827 H       1  ZINC000364058410    0.0600
     29 H29        -5.8191    2.6877   55.9278 H       1  ZINC000364058410    0.0600
     30 H30        -2.4551    4.3456   55.0681 H       1  ZINC000364058410    0.1700
     31 H31        -1.5612    5.6278   52.8696 H       1  ZINC000364058410    0.1300
     32 H32         0.0281    4.3879   51.4706 H       1  ZINC000364058410    0.1100
     33 H33        -0.8603    2.9212   52.0752 H       1  ZINC000364058410    0.0900
     34 H34        -2.8914    0.5119   49.4347 H       1  ZINC000364058410    0.0800
     35 H35        -2.5593    1.0579   47.7728 H       1  ZINC000364058410    0.0800
     36 H36        -0.7968   -0.8315   49.3985 H       1  ZINC000364058410    0.0700
     37 H37        -1.9108   -1.3232   48.1006 H       1  ZINC000364058410    0.0800
     38 H38         0.3950   -1.1217   47.2331 H       1  ZINC000364058410    0.0800
     39 H39        -0.6575    0.1125   46.4988 H       1  ZINC000364058410    0.0700
     40 H40         1.2732    0.5171   48.8297 H       1  ZINC000364058410    0.0800
     41 H41         1.4440    1.1692   47.1797 H       1  ZINC000364058410    0.0900
     42 H42         0.2659    3.6401   45.0361 H       1  ZINC000364058410    0.1500
     43 H43         2.5136    3.9094   43.8666 H       1  ZINC000364058410    0.1500
     44 H44         4.5145    3.8069   45.4112 H       1  ZINC000364058410    0.1700
     45 H45        -3.4632    5.3018   50.6981 H       1  ZINC000364058410    0.0900
     46 H46        -1.8443    6.1005   50.4799 H       1  ZINC000364058410    0.1100
     47 H47        -5.7282    2.2867   53.2332 H       1  ZINC000364058410    0.1800
@<TRIPOS>BOND
     1     1     2    1
     2     1    27    1
     3     1    28    1
     4     1    29    1
     5     2    26    1
     6     2     3    2
     7     3     4    1
     8     3    30    1
     9     4     5    1
    10     4    25    1
    11     5    24    1
    12     5     6    1
    13     5    31    1
    14     6     7    1
    15     6    32    1
    16     6    33    1
    17     7     8   am
    18     7    24    1
    19     8     9    2
    20     8    10    1
    21    10    11    1
    22    10    16    1
    23    10    12    1
    24    12    13    1
    25    12    34    1
    26    12    35    1
    27    13    14    1
    28    13    36    1
    29    13    37    1
    30    14    15    1
    31    14    38    1
    32    14    39    1
    33    15    16    1
    34    15    40    1
    35    15    41    1
    36    16    17   am
    37    17    18    2
    38    17    19    1
    39    19    23    1
    40    19    20    2
    41    20    21    1
    42    20    42    1
    43    21    22    2
    44    21    43    1
    45    22    23    1
    46    22    44    1
    47    24    45    1
    48    24    46    1
    49    25    26    2
    50    26    47    1
@<TRIPOS>SUBSTRUCTURE
     1 ZINC000364058410        1 TEMP              0 ****  ****    0 ROOT


##########                                Name:    ZINC000444542200
##########                DOCK_Rotatable_Bonds:                   8
##########                         Heavy_Atoms:                  28
##########                    Molecular_Weight:             404.337
##########                DOCK_Rotatable_Bonds:                   8
##########                       Formal_Charge:           0.0200001
##########                     HBond_Acceptors:                  10
##########                        HBond_Donors:                   1
##########                         Heavy_Atoms:                  28
##########                          Grid_Score:          -23.700871
##########                     Grid_vdw_energy:          -22.617903
##########                      Grid_es_energy:           -1.082968
##########           Internal_energy_repulsive:           21.230993

@<TRIPOS>MOLECULE
ZINC000444542200
 45 46 1 0 0
SMALL
USER_CHARGES


@<TRIPOS>ATOM
      1 C1         -4.7651    2.1212   56.2022 C.3     1  ZINC000444542200    0.0300
      2 O2         -3.4112    1.8498   55.8344 O.3     1  ZINC000444542200   -0.3100
      3 C3         -2.7446    2.8292   55.1687 C.ar    1  ZINC000444542200    0.1800
      4 C4         -1.4295    2.6298   54.7774 C.ar    1  ZINC000444542200   -0.1700
      5 C5         -0.7489    3.6302   54.0970 C.ar    1  ZINC000444542200    0.2300
      6 N6          0.5783    3.4294   53.7014 N.am    1  ZINC000444542200   -0.5800
      7 C7          1.6262    3.2604   54.7111 C.3     1  ZINC000444542200    0.0700
      8 C8          0.8925    3.3913   52.3913 C.2     1  ZINC000444542200    0.7100
      9 O9          2.0456    3.2169   52.0474 O.2     1  ZINC000444542200   -0.5500
     10 N10        -0.0716    3.5466   51.4624 N.am    1  ZINC000444542200   -0.7300
     11 C11         0.2696    3.5034   50.0382 C.3     1  ZINC000444542200    0.1700
     12 H12         1.3512    3.4291   49.9259 H       1  ZINC000444542200    0.1500
     13 C13        -0.3852    2.3050   49.4010 C.ar    1  ZINC000444542200   -0.1300
     14 C14        -1.6847    1.9702   49.7317 C.ar    1  ZINC000444542200   -0.0800
     15 C15        -2.2868    0.8710   49.1480 C.ar    1  ZINC000444542200   -0.0900
     16 C16        -1.5905    0.1047   48.2324 C.ar    1  ZINC000444542200   -0.1100
     17 C17        -0.2890    0.4373   47.8991 C.ar    1  ZINC000444542200    0.0800
     18 F18         0.3922   -0.3112   47.0042 F       1  ZINC000444542200   -0.1200
     19 C19         0.3129    1.5430   48.4802 C.ar    1  ZINC000444542200    0.1000
     20 F20         1.5832    1.8696   48.1564 F       1  ZINC000444542200   -0.1100
     21 C21        -0.2276    4.7793   49.3559 C.3     1  ZINC000444542200    0.4400
     22 F22         0.5238    5.8711   49.8039 F       1  ZINC000444542200   -0.1600
     23 F23        -0.0853    4.6526   47.9699 F       1  ZINC000444542200   -0.1700
     24 F24        -1.5760    4.9810   49.6697 F       1  ZINC000444542200   -0.1800
     25 C25        -1.3855    4.8295   53.8089 C.ar    1  ZINC000444542200   -0.1900
     26 C26        -2.7005    5.0276   54.2009 C.ar    1  ZINC000444542200    0.1800
     27 O27        -3.3239    6.2018   53.9189 O.3     1  ZINC000444542200   -0.3100
     28 C28        -4.6809    6.3348   54.3462 C.3     1  ZINC000444542200    0.0300
     29 C29        -3.3817    4.0258   54.8759 C.ar    1  ZINC000444542200   -0.2900
     30 H30        -4.7962    2.9929   56.8558 H       1  ZINC000444542200    0.0600
     31 H31        -5.3528    2.3181   55.3056 H       1  ZINC000444542200    0.0600
     32 H32        -5.1790    1.2594   56.7260 H       1  ZINC000444542200    0.1000
     33 H33        -0.9347    1.6965   55.0021 H       1  ZINC000444542200    0.1300
     34 H34         1.7299    2.2028   54.9537 H       1  ZINC000444542200    0.0700
     35 H35         2.5712    3.6381   54.3207 H       1  ZINC000444542200    0.0700
     36 H36         1.3570    3.8148   55.6102 H       1  ZINC000444542200    0.0900
     37 H37        -0.9914    3.6870   51.7366 H       1  ZINC000444542200    0.4100
     38 H38        -2.2303    2.5675   50.4471 H       1  ZINC000444542200    0.1400
     39 H39        -3.3022    0.6107   49.4079 H       1  ZINC000444542200    0.1500
     40 H40        -2.0618   -0.7540   47.7774 H       1  ZINC000444542200    0.1500
     41 H41        -0.8563    5.6085   53.2800 H       1  ZINC000444542200    0.1400
     42 H42        -4.7327    6.2286   55.4298 H       1  ZINC000444542200    0.0600
     43 H43        -5.0578    7.3166   54.0590 H       1  ZINC000444542200    0.1000
     44 H44        -5.2876    5.5609   53.8759 H       1  ZINC000444542200    0.0600
     45 H45        -4.4061    4.1806   55.1810 H       1  ZINC000444542200    0.1400
@<TRIPOS>BOND
     1     1     2    1
     2     1    30    1
     3     1    31    1
     4     1    32    1
     5     2     3    1
     6     3    29   ar
     7     3     4   ar
     8     4     5   ar
     9     4    33    1
    10     5     6    1
    11     5    25   ar
    12     6     7    1
    13     6     8   am
    14     7    34    1
    15     7    35    1
    16     7    36    1
    17     8     9    2
    18     8    10   am
    19    10    11    1
    20    10    37    1
    21    11    12    1
    22    11    13    1
    23    11    21    1
    24    13    19   ar
    25    13    14   ar
    26    14    15   ar
    27    14    38    1
    28    15    16   ar
    29    15    39    1
    30    16    17   ar
    31    16    40    1
    32    17    18    1
    33    17    19   ar
    34    19    20    1
    35    21    22    1
    36    21    23    1
    37    21    24    1
    38    25    26   ar
    39    25    41    1
    40    26    27    1
    41    26    29   ar
    42    27    28    1
    43    28    42    1
    44    28    43    1
    45    28    44    1
    46    29    45    1
@<TRIPOS>SUBSTRUCTURE
     1 ZINC000444542200        1 TEMP              0 ****  ****    0 ROOT


##########                                Name:    ZINC000550782577
##########                DOCK_Rotatable_Bonds:                   5
##########                         Heavy_Atoms:                  25
##########                    Molecular_Weight:              338.45
##########                DOCK_Rotatable_Bonds:                   5
##########                       Formal_Charge:         -0.00999954
##########                     HBond_Acceptors:                   4
##########                        HBond_Donors:                   0
##########                         Heavy_Atoms:                  25
##########                          Grid_Score:          -23.657637
##########                     Grid_vdw_energy:          -23.114101
##########                      Grid_es_energy:           -0.543535
##########           Internal_energy_repulsive:           16.732569

@<TRIPOS>MOLECULE
ZINC000550782577
 51 53 1 0 0
SMALL
USER_CHARGES


@<TRIPOS>ATOM
      1 C1         -0.8407    2.1325   48.5650 C.3     1  ZINC000550782577    0.0700
      2 N2         -0.5454    3.2073   47.6144 N.am    1  ZINC000550782577   -0.5900
      3 C3         -0.8036    4.4883   47.9440 C.2     1  ZINC000550782577    0.5800
      4 O4         -0.5586    5.3801   47.1553 O.2     1  ZINC000550782577   -0.5400
      5 C5         -1.3851    4.8091   49.2659 C.ar    1  ZINC000550782577    0.0300
      6 C6         -0.5507    5.2169   50.3059 C.ar    1  ZINC000550782577   -0.0600
      7 C7         -1.1061    5.5142   51.5378 C.ar    1  ZINC000550782577   -0.1200
      8 C8         -2.4843    5.3935   51.6904 C.ar    1  ZINC000550782577    0.1100
      9 O9         -3.0705    5.6754   52.8816 O.3     1  ZINC000550782577   -0.3000
     10 C10        -3.2448    4.5882   53.7924 C.3     1  ZINC000550782577    0.1000
     11 C11        -3.3149    5.1272   55.2224 C.3     1  ZINC000550782577   -0.2000
     12 C12        -4.5430    3.8490   53.4616 C.3     1  ZINC000550782577   -0.1400
     13 C13        -2.0632    3.6242   53.6679 C.3     1  ZINC000550782577   -0.2000
     14 C14        -3.2550    4.9802   50.6063 C.ar    1  ZINC000550782577   -0.0100
     15 N15        -2.6970    4.7108   49.4481 N.ar    1  ZINC000550782577   -0.4100
     16 C16         0.0304    2.8896   46.3052 C.3     1  ZINC000550782577    0.1400
     17 H17        -0.0239    3.7651   45.6583 H       1  ZINC000550782577    0.1100
     18 C18         1.4932    2.4626   46.4746 C.3     1  ZINC000550782577   -0.1300
     19 C19         2.1319    2.3711   45.0902 C.3     1  ZINC000550782577   -0.0800
     20 C20         1.2871    1.5270   44.1722 C.ar    1  ZINC000550782577   -0.0800
     21 C21         1.8829    1.0283   43.0213 C.ar    1  ZINC000550782577   -0.1200
     22 C22         1.1609    0.2533   42.1373 C.ar    1  ZINC000550782577   -0.1200
     23 C23        -0.1668   -0.0290   42.3981 C.ar    1  ZINC000550782577   -0.1200
     24 C24        -0.7601    0.4635   43.5423 C.ar    1  ZINC000550782577   -0.1200
     25 C25        -0.0341    1.2408   44.4351 C.ar    1  ZINC000550782577   -0.0700
     26 C26        -0.7401    1.7331   45.6714 C.3     1  ZINC000550782577   -0.0900
     27 H27        -1.8920    1.8556   48.4854 H       1  ZINC000550782577    0.0600
     28 H28        -0.2187    1.2664   48.3390 H       1  ZINC000550782577    0.0600
     29 H29        -0.6311    2.4757   49.5781 H       1  ZINC000550782577    0.1100
     30 H30         0.5150    5.2993   50.1520 H       1  ZINC000550782577    0.1600
     31 H31        -0.4847    5.8323   52.3619 H       1  ZINC000550782577    0.1500
     32 H32        -4.3316    5.4562   55.4373 H       1  ZINC000550782577    0.0700
     33 H33        -3.0323    4.3402   55.9216 H       1  ZINC000550782577    0.0800
     34 H34        -2.6308    5.9693   55.3274 H       1  ZINC000550782577    0.0800
     35 H35        -4.4930    3.4650   52.4428 H       1  ZINC000550782577    0.0700
     36 H36        -4.6759    3.0197   54.1565 H       1  ZINC000550782577    0.0800
     37 H37        -5.3848    4.5358   53.5503 H       1  ZINC000550782577    0.0700
     38 H38        -1.1389    4.1496   53.9080 H       1  ZINC000550782577    0.0800
     39 H39        -2.1985    2.7925   54.3594 H       1  ZINC000550782577    0.0800
     40 H40        -2.0104    3.2438   52.6479 H       1  ZINC000550782577    0.0700
     41 H41        -4.3249    4.8845   50.7181 H       1  ZINC000550782577    0.1900
     42 H42         2.0239    3.2010   47.0756 H       1  ZINC000550782577    0.0700
     43 H43         1.5373    1.4898   46.9643 H       1  ZINC000550782577    0.0700
     44 H44         2.2270    3.3729   44.6714 H       1  ZINC000550782577    0.0800
     45 H45         3.1219    1.9240   45.1800 H       1  ZINC000550782577    0.0800
     46 H46         2.9201    1.2493   42.8164 H       1  ZINC000550782577    0.1200
     47 H47         1.6313   -0.1313   41.2444 H       1  ZINC000550782577    0.1200
     48 H48        -0.7381   -0.6328   41.7084 H       1  ZINC000550782577    0.1200
     49 H49        -1.7977    0.2428   43.7452 H       1  ZINC000550782577    0.1200
     50 H50        -0.8180    0.9172   46.3899 H       1  ZINC000550782577    0.0800
     51 H51        -1.7408    2.0716   45.4031 H       1  ZINC000550782577    0.0800
@<TRIPOS>BOND
     1     1     2    1
     2     1    27    1
     3     1    28    1
     4     1    29    1
     5     2     3   am
     6     2    16    1
     7     3     4    2
     8     3     5    1
     9     5    15   ar
    10     5     6   ar
    11     6     7   ar
    12     6    30    1
    13     7     8   ar
    14     7    31    1
    15     8     9    1
    16     8    14   ar
    17     9    10    1
    18    10    11    1
    19    10    12    1
    20    10    13    1
    21    11    32    1
    22    11    33    1
    23    11    34    1
    24    12    35    1
    25    12    36    1
    26    12    37    1
    27    13    38    1
    28    13    39    1
    29    13    40    1
    30    14    15   ar
    31    14    41    1
    32    16    17    1
    33    16    26    1
    34    16    18    1
    35    18    19    1
    36    18    42    1
    37    18    43    1
    38    19    20    1
    39    19    44    1
    40    19    45    1
    41    20    25   ar
    42    20    21   ar
    43    21    22   ar
    44    21    46    1
    45    22    23   ar
    46    22    47    1
    47    23    24   ar
    48    23    48    1
    49    24    25   ar
    50    24    49    1
    51    25    26    1
    52    26    50    1
    53    26    51    1
@<TRIPOS>SUBSTRUCTURE
     1 ZINC000550782577        1 TEMP              0 ****  ****    0 ROOT


##########                                Name:    ZINC000422507946
##########                DOCK_Rotatable_Bonds:                   7
##########                         Heavy_Atoms:                  25
##########                    Molecular_Weight:             364.484
##########                DOCK_Rotatable_Bonds:                   7
##########                       Formal_Charge:          0.00999952
##########                     HBond_Acceptors:                   6
##########                        HBond_Donors:                   1
##########                         Heavy_Atoms:                  25
##########                          Grid_Score:          -23.509764
##########                     Grid_vdw_energy:          -21.922594
##########                      Grid_es_energy:           -1.587170
##########           Internal_energy_repulsive:           27.965176

@<TRIPOS>MOLECULE
ZINC000422507946
 50 52 1 0 0
SMALL
USER_CHARGES


@<TRIPOS>ATOM
      1 C1         -0.3067    7.2810   42.1603 C.3     1  ZINC000422507946   -0.1400
      2 C2          0.9934    6.6914   42.7107 C.3     1  ZINC000422507946   -0.0400
      3 H3          1.6291    6.3474   41.8949 H       1  ZINC000422507946    0.1100
      4 C4          0.6891    5.5312   43.6812 C.3     1  ZINC000422507946   -0.1400
      5 C5          1.7594    5.5114   44.7863 C.3     1  ZINC000422507946    0.1400
      6 H6          2.7073    5.1586   44.3803 H       1  ZINC000422507946    0.1100
      7 N7          1.3300    4.6405   45.8833 N.am    1  ZINC000422507946   -0.6900
      8 C8          2.2474    3.9903   46.6263 C.2     1  ZINC000422507946    0.5100
      9 O9          3.4292    4.1274   46.3875 O.2     1  ZINC000422507946   -0.5000
     10 C10         1.8092    3.1006   47.7442 C.2     1  ZINC000422507946    0.5100
     11 O11         2.0525    3.4054   48.8933 O.2     1  ZINC000422507946   -0.5200
     12 N12         1.1439    1.9595   47.4760 N.am    1  ZINC000422507946   -0.5700
     13 C13         0.8503    1.5916   46.0886 C.3     1  ZINC000422507946    0.1400
     14 C14         2.1258    1.1874   45.3954 C.ar    1  ZINC000422507946   -0.0800
     15 C15         2.1825    1.1588   44.0146 C.ar    1  ZINC000422507946   -0.1100
     16 C16         3.3520    0.7881   43.3771 C.ar    1  ZINC000422507946   -0.0900
     17 C17         4.4658    0.4459   44.1199 C.ar    1  ZINC000422507946   -0.1500
     18 C18         4.4103    0.4747   45.5033 C.ar    1  ZINC000422507946    0.1000
     19 F19         5.4987    0.1403   46.2305 F       1  ZINC000422507946   -0.1400
     20 C20         3.2403    0.8510   46.1404 C.ar    1  ZINC000422507946   -0.1500
     21 C21         0.7143    1.0872   48.5718 C.3     1  ZINC000422507946    0.1400
     22 C22        -0.7974    1.2620   48.8247 C.3     1  ZINC000422507946   -0.1200
     23 C23        -1.4531    0.1156   48.0155 C.3     1  ZINC000422507946   -0.1300
     24 C24        -0.4615   -1.0568   48.2188 C.3     1  ZINC000422507946   -0.1200
     25 C25         0.9278   -0.3872   48.1865 C.3     1  ZINC000422507946   -0.1600
     26 C26         1.9103    6.9695   45.2941 C.3     1  ZINC000422507946   -0.0900
     27 S27         1.8760    7.9313   43.7286 S.3     1  ZINC000422507946   -0.2700
     28 H28        -0.0755    8.1167   41.4997 H       1  ZINC000422507946    0.0700
     29 H29        -0.8455    6.5152   41.6023 H       1  ZINC000422507946    0.0700
     30 H30        -0.9253    7.6313   42.9865 H       1  ZINC000422507946    0.0700
     31 H31        -0.2948    5.6760   44.1274 H       1  ZINC000422507946    0.0900
     32 H32         0.7062    4.5862   43.1384 H       1  ZINC000422507946    0.0900
     33 H33         0.3852    4.5319   46.0750 H       1  ZINC000422507946    0.4100
     34 H34         0.1490    0.7572   46.0746 H       1  ZINC000422507946    0.1100
     35 H35         0.4104    2.4446   45.5718 H       1  ZINC000422507946    0.1000
     36 H36         1.3123    1.4257   43.4332 H       1  ZINC000422507946    0.1400
     37 H37         3.3950    0.7658   42.2983 H       1  ZINC000422507946    0.1300
     38 H38         5.3790    0.1558   43.6217 H       1  ZINC000422507946    0.1400
     39 H39         3.1960    0.8742   47.2193 H       1  ZINC000422507946    0.1400
     40 H40         1.2747    1.3215   49.4768 H       1  ZINC000422507946    0.1100
     41 H41        -1.0213    1.1562   49.8863 H       1  ZINC000422507946    0.0800
     42 H42        -1.1363    2.2306   48.4572 H       1  ZINC000422507946    0.0600
     43 H43        -2.4334   -0.1327   48.4222 H       1  ZINC000422507946    0.0700
     44 H44        -1.5269    0.3805   46.9608 H       1  ZINC000422507946    0.0600
     45 H45        -0.6311   -1.5371   49.1824 H       1  ZINC000422507946    0.0700
     46 H46        -0.5552   -1.7804   47.4090 H       1  ZINC000422507946    0.0700
     47 H47         1.3512   -0.4536   47.1842 H       1  ZINC000422507946    0.0900
     48 H48         1.5912   -0.8685   48.9050 H       1  ZINC000422507946    0.0800
     49 H49         1.0751    7.2446   45.9381 H       1  ZINC000422507946    0.1000
     50 H50         2.8608    7.1042   45.8106 H       1  ZINC000422507946    0.1100
@<TRIPOS>BOND
     1     1     2    1
     2     1    28    1
     3     1    29    1
     4     1    30    1
     5     2     3    1
     6     2    27    1
     7     2     4    1
     8     4     5    1
     9     4    31    1
    10     4    32    1
    11     5     6    1
    12     5     7    1
    13     5    26    1
    14     7     8   am
    15     7    33    1
    16     8     9    2
    17     8    10    1
    18    10    11    2
    19    10    12   am
    20    12    13    1
    21    12    21    1
    22    13    14    1
    23    13    34    1
    24    13    35    1
    25    14    20   ar
    26    14    15   ar
    27    15    16   ar
    28    15    36    1
    29    16    17   ar
    30    16    37    1
    31    17    18   ar
    32    17    38    1
    33    18    19    1
    34    18    20   ar
    35    20    39    1
    36    21    25    1
    37    21    22    1
    38    21    40    1
    39    22    23    1
    40    22    41    1
    41    22    42    1
    42    23    24    1
    43    23    43    1
    44    23    44    1
    45    24    25    1
    46    24    45    1
    47    24    46    1
    48    25    47    1
    49    25    48    1
    50    26    27    1
    51    26    49    1
    52    26    50    1
@<TRIPOS>SUBSTRUCTURE
     1 ZINC000422507946        1 TEMP              0 ****  ****    0 ROOT


##########                                Name:    ZINC000345028113
##########                DOCK_Rotatable_Bonds:                   5
##########                         Heavy_Atoms:                  21
##########                    Molecular_Weight:             331.838
##########                DOCK_Rotatable_Bonds:                   5
##########                       Formal_Charge:         4.47035e-07
##########                     HBond_Acceptors:                   6
##########                        HBond_Donors:                   0
##########                         Heavy_Atoms:                  21
##########                          Grid_Score:          -23.478361
##########                     Grid_vdw_energy:          -22.468277
##########                      Grid_es_energy:           -1.010084
##########           Internal_energy_repulsive:           16.557890

@<TRIPOS>MOLECULE
ZINC000345028113
 40 41 1 0 0
SMALL
USER_CHARGES


@<TRIPOS>ATOM
      1 C1         -9.9621    0.5786   63.2840 C.3     1  ZINC000345028113   -0.1700
      2 C2         -8.6959   -0.2108   62.9454 C.3     1  ZINC000345028113    0.1400
      3 H3         -8.9607   -1.2449   62.7251 H       1  ZINC000345028113    0.1100
      4 C4         -7.7358   -0.1726   64.1392 C.3     1  ZINC000345028113   -0.0700
      5 H5         -6.8496   -0.7661   63.9144 H       1  ZINC000345028113    0.0900
      6 C6         -8.4333   -0.7409   65.3768 C.3     1  ZINC000345028113   -0.1400
      7 S7         -7.2520    1.5521   64.4466 S.3     1  ZINC000345028113   -0.2400
      8 C8         -6.6144    2.0704   62.8256 C.3     1  ZINC000345028113   -0.1100
      9 C9         -7.6881    1.8052   61.7649 C.3     1  ZINC000345028113    0.1000
     10 N10        -8.0465    0.3860   61.7773 N.am    1  ZINC000345028113   -0.6100
     11 C11        -7.7758   -0.3793   60.7015 C.2     1  ZINC000345028113    0.5200
     12 O12        -7.2394    0.1089   59.7295 O.2     1  ZINC000345028113   -0.5300
     13 C13        -8.1398   -1.8417   60.7063 C.3     1  ZINC000345028113   -0.1400
     14 C14        -9.6464   -1.9931   60.4872 C.3     1  ZINC000345028113    0.0700
     15 O15        -9.9715   -1.6290   59.1442 O.3     1  ZINC000345028113   -0.3000
     16 C16       -11.1956   -2.0003   58.6830 C.ar    1  ZINC000345028113    0.1300
     17 C17       -11.4497   -3.3296   58.3820 C.ar    1  ZINC000345028113   -0.1700
     18 C18       -12.6944   -3.7059   57.9138 C.ar    1  ZINC000345028113   -0.1100
     19 C19       -13.6876   -2.7566   57.7451 C.ar    1  ZINC000345028113    0.0800
     20 F20       -14.9038   -3.1264   57.2877 F       1  ZINC000345028113   -0.1300
     21 C21       -13.4360   -1.4283   58.0451 C.ar    1  ZINC000345028113   -0.1100
     22 C22       -12.1938   -1.0496   58.5186 C.ar    1  ZINC000345028113   -0.0400
     23 Cl23      -11.8783    0.6154   58.8948 Cl      1  ZINC000345028113   -0.0400
     24 H24       -10.6451    0.5514   62.4350 H       1  ZINC000345028113    0.0600
     25 H25       -10.4456    0.1342   64.1538 H       1  ZINC000345028113    0.0800
     26 H26        -9.6974    1.6128   63.5043 H       1  ZINC000345028113    0.0800
     27 H27        -8.7315   -1.7716   65.1845 H       1  ZINC000345028113    0.0800
     28 H28        -7.7488   -0.7129   66.2246 H       1  ZINC000345028113    0.0700
     29 H29        -9.3164   -0.1432   65.6026 H       1  ZINC000345028113    0.0700
     30 H30        -6.3789    3.1345   62.8489 H       1  ZINC000345028113    0.1200
     31 H31        -5.7164    1.5005   62.5870 H       1  ZINC000345028113    0.0900
     32 H32        -8.5714    2.4048   61.9842 H       1  ZINC000345028113    0.0900
     33 H33        -7.3016    2.0736   60.7817 H       1  ZINC000345028113    0.1000
     34 H34        -7.6033   -2.3523   59.9064 H       1  ZINC000345028113    0.1100
     35 H35        -7.8660   -2.2812   61.6655 H       1  ZINC000345028113    0.1100
     36 H36        -9.9369   -3.0288   60.6633 H       1  ZINC000345028113    0.0800
     37 H37       -10.1814   -1.3430   61.1796 H       1  ZINC000345028113    0.0800
     38 H38       -10.6752   -4.0707   58.5130 H       1  ZINC000345028113    0.1500
     39 H39       -12.8922   -4.7413   57.6789 H       1  ZINC000345028113    0.1500
     40 H40       -14.2118   -0.6886   57.9128 H       1  ZINC000345028113    0.1500
@<TRIPOS>BOND
     1     1     2    1
     2     1    24    1
     3     1    25    1
     4     1    26    1
     5     2     3    1
     6     2    10    1
     7     2     4    1
     8     4     5    1
     9     4     6    1
    10     4     7    1
    11     6    27    1
    12     6    28    1
    13     6    29    1
    14     7     8    1
    15     8     9    1
    16     8    30    1
    17     8    31    1
    18     9    10    1
    19     9    32    1
    20     9    33    1
    21    10    11   am
    22    11    12    2
    23    11    13    1
    24    13    14    1
    25    13    34    1
    26    13    35    1
    27    14    15    1
    28    14    36    1
    29    14    37    1
    30    15    16    1
    31    16    22   ar
    32    16    17   ar
    33    17    18   ar
    34    17    38    1
    35    18    19   ar
    36    18    39    1
    37    19    20    1
    38    19    21   ar
    39    21    22   ar
    40    21    40    1
    41    22    23    1
@<TRIPOS>SUBSTRUCTURE
     1 ZINC000345028113        1 TEMP              0 ****  ****    0 ROOT


##########                                Name:    ZINC001023407238
##########                DOCK_Rotatable_Bonds:                   7
##########                         Heavy_Atoms:                  25
##########                    Molecular_Weight:             349.387
##########                DOCK_Rotatable_Bonds:                   7
##########                       Formal_Charge:          -0.0300008
##########                     HBond_Acceptors:                   8
##########                        HBond_Donors:                   2
##########                         Heavy_Atoms:                  25
##########                          Grid_Score:          -23.400631
##########                     Grid_vdw_energy:          -22.653214
##########                      Grid_es_energy:           -0.747418
##########           Internal_energy_repulsive:           36.177734

@<TRIPOS>MOLECULE
ZINC001023407238
 48 50 1 0 0
SMALL
USER_CHARGES


@<TRIPOS>ATOM
      1 C1         -0.6761    0.0569   45.2297 C.3     1  ZINC001023407238   -0.0900
      2 C2          0.2293    1.2459   45.0364 C.2     1  ZINC001023407238   -0.1100
      3 C3          0.0085    2.5270   45.4955 C.2     1  ZINC001023407238   -0.0500
      4 C4         -1.1542    2.9842   46.2641 C.2     1  ZINC001023407238    0.6100
      5 O5         -2.1636    3.3414   45.6857 O.2     1  ZINC001023407238   -0.5100
      6 N6         -1.1045    3.0089   47.6107 N.am    1  ZINC001023407238   -0.6100
      7 C7         -2.1918    3.4420   48.5005 C.3     1  ZINC001023407238    0.0800
      8 C8         -1.6920    3.2725   49.9507 C.3     1  ZINC001023407238    0.0900
      9 H9         -1.2987    4.2134   50.3355 H       1  ZINC001023407238    0.0800
     10 O10        -2.7379    2.7821   50.7918 O.3     1  ZINC001023407238   -0.5500
     11 C11        -0.5594    2.2217   49.8074 C.3     1  ZINC001023407238    0.1400
     12 H12        -0.9652    1.2103   49.7857 H       1  ZINC001023407238    0.1200
     13 N13         0.4288    2.3652   50.8795 N.am    1  ZINC001023407238   -0.7200
     14 C14         1.0401    3.5498   51.0782 C.2     1  ZINC001023407238    0.5200
     15 O15         0.7733    4.4965   50.3686 O.2     1  ZINC001023407238   -0.5300
     16 C16         2.0553    3.6979   52.1821 C.3     1  ZINC001023407238   -0.1300
     17 C17         1.3555    4.1685   53.4587 C.3     1  ZINC001023407238   -0.1100
     18 H18         2.0796    4.3423   54.2548 H       1  ZINC001023407238    0.1100
     19 C19         0.5165    5.4386   53.1905 C.3     1  ZINC001023407238    0.0600
     20 O20        -0.6484    5.2946   54.0559 O.3     1  ZINC001023407238   -0.3500
     21 C21        -0.9399    3.9959   54.2166 C.2     1  ZINC001023407238    0.4800
     22 O22        -2.0139    3.5626   54.5612 O.2     1  ZINC001023407238   -0.4600
     23 C23         0.2813    3.1514   53.9043 C.3     1  ZINC001023407238   -0.1800
     24 C24         0.0471    2.6002   48.4356 C.3     1  ZINC001023407238    0.1000
     25 N25         1.0782    3.2988   45.1017 N.pl3   1  ZINC001023407238   -0.4200
     26 C26         1.2501    4.7267   45.3805 C.3     1  ZINC001023407238    0.0700
     27 C27         1.9458    2.5177   44.4132 C.2     1  ZINC001023407238    0.0100
     28 C28         1.4546    1.2564   44.3628 C.2     1  ZINC001023407238   -0.2000
     29 H29        -0.4097   -0.4563   46.1538 H       1  ZINC001023407238    0.0600
     30 H30        -1.7112    0.3939   45.2868 H       1  ZINC001023407238    0.0600
     31 H31        -0.5625   -0.6270   44.3886 H       1  ZINC001023407238    0.0700
     32 H32        -2.4314    4.4882   48.3109 H       1  ZINC001023407238    0.0800
     33 H33        -3.0733    2.8220   48.3374 H       1  ZINC001023407238    0.0800
     34 H34        -2.4587    2.0846   51.4006 H       1  ZINC001023407238    0.3900
     35 H35         0.6430    1.6077   51.4462 H       1  ZINC001023407238    0.4100
     36 H36         2.5364    2.7370   52.3646 H       1  ZINC001023407238    0.1000
     37 H37         2.8070    4.4306   51.8886 H       1  ZINC001023407238    0.1100
     38 H38         1.0815    6.3315   53.4581 H       1  ZINC001023407238    0.1200
     39 H39         0.2112    5.4794   52.1449 H       1  ZINC001023407238    0.0800
     40 H40         0.0634    2.4540   53.0954 H       1  ZINC001023407238    0.1100
     41 H41         0.6073    2.6122   54.7937 H       1  ZINC001023407238    0.1200
     42 H42         0.5492    1.7401   47.9925 H       1  ZINC001023407238    0.0900
     43 H43         0.7429    3.4320   48.5449 H       1  ZINC001023407238    0.0800
     44 H44         1.8541    4.8513   46.2792 H       1  ZINC001023407238    0.0800
     45 H45         1.7502    5.2038   44.5376 H       1  ZINC001023407238    0.0900
     46 H46         0.2740    5.1874   45.5320 H       1  ZINC001023407238    0.0800
     47 H47         2.8783    2.8464   43.9790 H       1  ZINC001023407238    0.1700
     48 H48         1.9229    0.4104   43.8815 H       1  ZINC001023407238    0.1400
@<TRIPOS>BOND
     1     1     2    1
     2     1    29    1
     3     1    30    1
     4     1    31    1
     5     2    28    1
     6     2     3    2
     7     3     4    1
     8     3    25    1
     9     4     5    2
    10     4     6   am
    11     6    24    1
    12     6     7    1
    13     7     8    1
    14     7    32    1
    15     7    33    1
    16     8     9    1
    17     8    10    1
    18     8    11    1
    19    10    34    1
    20    11    12    1
    21    11    13    1
    22    11    24    1
    23    13    14   am
    24    13    35    1
    25    14    15    2
    26    14    16    1
    27    16    17    1
    28    16    36    1
    29    16    37    1
    30    17    18    1
    31    17    23    1
    32    17    19    1
    33    19    20    1
    34    19    38    1
    35    19    39    1
    36    20    21    1
    37    21    22    2
    38    21    23    1
    39    23    40    1
    40    23    41    1
    41    24    42    1
    42    24    43    1
    43    25    26    1
    44    25    27    1
    45    26    44    1
    46    26    45    1
    47    26    46    1
    48    27    28    2
    49    27    47    1
    50    28    48    1
@<TRIPOS>SUBSTRUCTURE
     1 ZINC001023407238        1 TEMP              0 ****  ****    0 ROOT


##########                                Name:    ZINC000455156110
##########                DOCK_Rotatable_Bonds:                   4
##########                         Heavy_Atoms:                  27
##########                    Molecular_Weight:             370.424
##########                DOCK_Rotatable_Bonds:                   4
##########                       Formal_Charge:           0.0100002
##########                     HBond_Acceptors:                   6
##########                        HBond_Donors:                   1
##########                         Heavy_Atoms:                  27
##########                          Grid_Score:          -23.369991
##########                     Grid_vdw_energy:          -23.414415
##########                      Grid_es_energy:            0.044425
##########           Internal_energy_repulsive:           27.524065

@<TRIPOS>MOLECULE
ZINC000455156110
 50 53 1 0 0
SMALL
USER_CHARGES


@<TRIPOS>ATOM
      1 C1         -8.6335    0.2591   64.4435 C.3     1  ZINC000455156110    0.0300
      2 O2         -8.5527   -0.7298   63.4151 O.3     1  ZINC000455156110   -0.3100
      3 C3         -8.3617   -0.2847   62.1440 C.ar    1  ZINC000455156110    0.0900
      4 C4         -8.1643    1.0662   61.9052 C.ar    1  ZINC000455156110   -0.1600
      5 C5         -7.9701    1.5193   60.6143 C.ar    1  ZINC000455156110   -0.0800
      6 C6         -7.7561    2.9885   60.3560 C.3     1  ZINC000455156110   -0.1100
      7 C7         -7.9717    0.6218   59.5556 C.ar    1  ZINC000455156110    0.1500
      8 N8         -7.7738    1.0816   58.2467 N.am    1  ZINC000455156110   -0.6700
      9 C9         -8.7364    0.9095   57.3193 C.2     1  ZINC000455156110    0.7200
     10 O10        -9.7766    0.3553   57.6182 O.2     1  ZINC000455156110   -0.5500
     11 N11        -8.5460    1.3518   56.0604 N.am    1  ZINC000455156110   -0.5600
     12 C12        -9.5185    1.2288   54.9696 C.3     1  ZINC000455156110    0.1000
     13 C13        -8.8394    1.8765   53.7568 C.3     1  ZINC000455156110   -0.0200
     14 C14        -8.6731    0.8545   52.6346 C.3     1  ZINC000455156110   -0.1400
     15 C15       -10.0560    0.4461   52.1173 C.3     1  ZINC000455156110    0.0600
     16 O16       -10.7645    1.6106   51.6880 O.3     1  ZINC000455156110   -0.3800
     17 C17       -10.9997    2.5679   52.7228 C.3     1  ZINC000455156110    0.0600
     18 C18        -9.6578    3.0686   53.2661 C.3     1  ZINC000455156110   -0.1400
     19 C19        -7.4929    2.3323   54.2602 C.ar    1  ZINC000455156110   -0.1300
     20 C20        -6.4513    2.9767   53.6209 C.ar    1  ZINC000455156110   -0.0700
     21 C21        -5.2983    3.2930   54.3154 C.ar    1  ZINC000455156110   -0.1400
     22 C22        -5.1886    2.9627   55.6534 C.ar    1  ZINC000455156110   -0.0900
     23 C23        -6.2247    2.3188   56.2959 C.ar    1  ZINC000455156110   -0.1300
     24 C24        -7.3941    2.0012   55.6038 C.ar    1  ZINC000455156110    0.1600
     25 C25        -8.1688   -0.7320   59.7937 C.ar    1  ZINC000455156110   -0.1200
     26 C26        -8.3586   -1.1852   61.0858 C.ar    1  ZINC000455156110    0.0900
     27 F27        -8.5501   -2.5022   61.3187 F       1  ZINC000455156110   -0.1300
     28 H28        -8.7864   -0.2292   65.4060 H       1  ZINC000455156110    0.1000
     29 H29        -7.7067    0.8322   64.4700 H       1  ZINC000455156110    0.0600
     30 H30        -9.4689    0.9287   64.2389 H       1  ZINC000455156110    0.0600
     31 H31        -8.1626    1.7652   62.7286 H       1  ZINC000455156110    0.1400
     32 H32        -6.6906    3.2140   60.4010 H       1  ZINC000455156110    0.0800
     33 H33        -8.1401    3.2435   59.3681 H       1  ZINC000455156110    0.0600
     34 H34        -8.2829    3.5709   61.1119 H       1  ZINC000455156110    0.0800
     35 H35        -6.9440    1.5238   58.0083 H       1  ZINC000455156110    0.4100
     36 H36        -9.7313    0.1788   54.7685 H       1  ZINC000455156110    0.0800
     37 H37       -10.4364    1.7611   55.2187 H       1  ZINC000455156110    0.0900
     38 H38        -8.0963    1.2964   51.8221 H       1  ZINC000455156110    0.0800
     39 H39        -8.1528   -0.0239   53.0161 H       1  ZINC000455156110    0.0800
     40 H40        -9.9423   -0.2403   51.2783 H       1  ZINC000455156110    0.1000
     41 H41       -10.6126   -0.0444   52.9160 H       1  ZINC000455156110    0.0500
     42 H42       -11.5650    3.4080   52.3194 H       1  ZINC000455156110    0.1000
     43 H43       -11.5667    2.1009   53.5282 H       1  ZINC000455156110    0.0500
     44 H44        -9.8335    3.7554   54.0940 H       1  ZINC000455156110    0.0800
     45 H45        -9.1133    3.5829   52.4742 H       1  ZINC000455156110    0.0800
     46 H46        -6.5379    3.2338   52.5756 H       1  ZINC000455156110    0.1300
     47 H47        -4.4853    3.7965   53.8136 H       1  ZINC000455156110    0.1300
     48 H48        -4.2885    3.2096   56.1969 H       1  ZINC000455156110    0.1300
     49 H49        -6.1326    2.0629   57.3411 H       1  ZINC000455156110    0.1400
     50 H50        -8.1701   -1.4309   58.9704 H       1  ZINC000455156110    0.1700
@<TRIPOS>BOND
     1     1     2    1
     2     1    28    1
     3     1    29    1
     4     1    30    1
     5     2     3    1
     6     3    26   ar
     7     3     4   ar
     8     4     5   ar
     9     4    31    1
    10     5     6    1
    11     5     7   ar
    12     6    32    1
    13     6    33    1
    14     6    34    1
    15     7     8    1
    16     7    25   ar
    17     8     9   am
    18     8    35    1
    19     9    10    2
    20     9    11   am
    21    11    24    1
    22    11    12    1
    23    12    13    1
    24    12    36    1
    25    12    37    1
    26    13    18    1
    27    13    14    1
    28    13    19    1
    29    14    15    1
    30    14    38    1
    31    14    39    1
    32    15    16    1
    33    15    40    1
    34    15    41    1
    35    16    17    1
    36    17    18    1
    37    17    42    1
    38    17    43    1
    39    18    44    1
    40    18    45    1
    41    19    24   ar
    42    19    20   ar
    43    20    21   ar
    44    20    46    1
    45    21    22   ar
    46    21    47    1
    47    22    23   ar
    48    22    48    1
    49    23    24   ar
    50    23    49    1
    51    25    26   ar
    52    25    50    1
    53    26    27    1
@<TRIPOS>SUBSTRUCTURE
     1 ZINC000455156110        1 TEMP              0 ****  ****    0 ROOT


##########                                Name:    ZINC000569288350
##########                DOCK_Rotatable_Bonds:                   3
##########                         Heavy_Atoms:                  19
##########                    Molecular_Weight:             393.559
##########                DOCK_Rotatable_Bonds:                   3
##########                       Formal_Charge:           0.0299999
##########                     HBond_Acceptors:                   5
##########                        HBond_Donors:                   1
##########                         Heavy_Atoms:                  19
##########                          Grid_Score:          -20.666674
##########                     Grid_vdw_energy:          -20.608009
##########                      Grid_es_energy:           -0.058665
##########           Internal_energy_repulsive:            4.879067

@<TRIPOS>MOLECULE
ZINC000569288350
 26 27 1 0 0
SMALL
USER_CHARGES


@<TRIPOS>ATOM
      1 O1         -0.9051    3.3917   45.9207 O.2     1  ZINC000569288350   -0.4800
      2 C2         -0.5380    2.6975   46.8489 C.2     1  ZINC000569288350    0.5700
      3 N3          0.2752    1.6465   46.6239 N.am    1  ZINC000569288350   -0.6600
      4 C4          0.6923    1.3510   45.3215 C.ar    1  ZINC000569288350    0.1800
      5 C5          1.9550    1.7361   44.8913 C.ar    1  ZINC000569288350   -0.1200
      6 C6          2.3653    1.4435   43.6049 C.ar    1  ZINC000569288350   -0.0600
      7 C7          1.5204    0.7680   42.7443 C.ar    1  ZINC000569288350   -0.1500
      8 C8          0.2597    0.3815   43.1685 C.ar    1  ZINC000569288350    0.1300
      9 F9         -0.5636   -0.2791   42.3253 F       1  ZINC000569288350   -0.1200
     10 C10        -0.1543    0.6665   44.4581 C.ar    1  ZINC000569288350   -0.1000
     11 Cl11       -1.7338    0.1822   44.9912 Cl      1  ZINC000569288350   -0.0400
     12 C12        -0.9780    3.0093   48.2231 C.ar    1  ZINC000569288350   -0.1400
     13 C13        -2.1982    2.5186   48.6988 C.ar    1  ZINC000569288350    0.1400
     14 F14        -2.9790    1.7564   47.9021 F       1  ZINC000569288350   -0.1200
     15 C15        -2.6027    2.8157   49.9875 C.ar    1  ZINC000569288350   -0.1300
     16 C16        -1.8043    3.5955   50.8031 C.ar    1  ZINC000569288350   -0.0600
     17 C17        -0.5958    4.0846   50.3379 C.ar    1  ZINC000569288350   -0.0900
     18 C18        -0.1751    3.7916   49.0574 C.ar    1  ZINC000569288350   -0.0500
     19 I19         1.6549    4.5341   48.3579 I       1  ZINC000569288350    0.0000
     20 H20         0.5714    1.0951   47.3649 H       1  ZINC000569288350    0.4200
     21 H21         2.6163    2.2646   45.5620 H       1  ZINC000569288350    0.1600
     22 H22         3.3476    1.7434   43.2710 H       1  ZINC000569288350    0.1500
     23 H23         1.8438    0.5414   41.7391 H       1  ZINC000569288350    0.1500
     24 H24        -3.5445    2.4379   50.3572 H       1  ZINC000569288350    0.1500
     25 H25        -2.1253    3.8246   51.8085 H       1  ZINC000569288350    0.1500
     26 H26         0.0221    4.6934   50.9814 H       1  ZINC000569288350    0.1500
@<TRIPOS>BOND
     1     1     2    2
     2     2     3   am
     3     2    12    1
     4     3     4    1
     5     3    20    1
     6     4    10   ar
     7     4     5   ar
     8     5     6   ar
     9     5    21    1
    10     6     7   ar
    11     6    22    1
    12     7     8   ar
    13     7    23    1
    14     8     9    1
    15     8    10   ar
    16    10    11    1
    17    12    18   ar
    18    12    13   ar
    19    13    14    1
    20    13    15   ar
    21    15    16   ar
    22    15    24    1
    23    16    17   ar
    24    16    25    1
    25    17    18   ar
    26    17    26    1
    27    18    19    1
@<TRIPOS>SUBSTRUCTURE
     1 ZINC000569288350        1 TEMP              0 ****  ****    0 ROOT

